dssFiles/Backup/Mikilua_EXP_VOLTAGES.CSV
Bus, BasekV, Node1, Magnitude1, Angle1, pu1, Node2, Magnitude2, Angle2, pu2, Node3, Magnitude3, Angle3, pu3
"SOURCEBUS", 12.47, 1,     7552.8,   -0.2,    1.0491, 2,    7570.62, -120.0,    1.0515, 3,    7551.68,  120.0,    1.0489
"DEV_258083", 12.47, 1,    7472.16,   -1.0,    1.0379, 0, 0, 0, 0, 0, 0, 0, 0
"DEV_258183", 12.47, 1,    7472.16,   -1.0,    1.0379, 0, 0, 0, 0, 0, 0, 0, 0
"DEV_258175", 12.47, 1,    7470.82,   -1.0,    1.0377, 0, 0, 0, 0, 0, 0, 0, 0
"DEV_258084", 12.47, 1,    7470.82,   -1.0,    1.0377, 0, 0, 0, 0, 0, 0, 0, 0
"DEV_258082", 12.47, 1,    7471.44,   -1.0,    1.0378, 0, 0, 0, 0, 0, 0, 0, 0
"DEV_258185", 12.47, 1,    7471.44,   -1.0,    1.0378, 0, 0, 0, 0, 0, 0, 0, 0
"DEV_258074", 12.47, 1,    7465.62,   -1.0,     1.037, 0, 0, 0, 0, 0, 0, 0, 0
"DEV_258195", 12.47, 1,    7465.62,   -1.0,     1.037, 0, 0, 0, 0, 0, 0, 0, 0
"DEV_258078", 12.47, 1,    7465.54,   -1.0,    1.0369, 0, 0, 0, 0, 0, 0, 0, 0
"DEV_258191", 12.47, 1,    7465.54,   -1.0,    1.0369, 0, 0, 0, 0, 0, 0, 0, 0
"DEV_258081", 12.47, 1,    7465.66,   -1.0,     1.037, 0, 0, 0, 0, 0, 0, 0, 0
"DEV_258181", 12.47, 1,    7465.66,   -1.0,     1.037, 0, 0, 0, 0, 0, 0, 0, 0
"DEV_258173", 12.47, 1,    7471.69,   -1.0,    1.0378, 0, 0, 0, 0, 0, 0, 0, 0
"DEV_258152", 12.47, 1,    7471.69,   -1.0,    1.0378, 0, 0, 0, 0, 0, 0, 0, 0
"DEV_258210", 12.47, 1,    7467.09,   -1.0,    1.0372, 0, 0, 0, 0, 0, 0, 0, 0
"DEV_258211", 12.47, 1,    7467.09,   -1.0,    1.0372, 0, 0, 0, 0, 0, 0, 0, 0
"DEV_258793", 12.47, 1,    7472.94,   -1.0,     1.038, 0, 0, 0, 0, 0, 0, 0, 0
"DEV_258894", 12.47, 1,    7472.94,   -1.0,     1.038, 0, 0, 0, 0, 0, 0, 0, 0
"DEV_258813", 12.47, 1,    7476.47,   -1.0,    1.0385, 0, 0, 0, 0, 0, 0, 0, 0
"DEV_258887", 12.47, 1,    7476.47,   -1.0,    1.0385, 0, 0, 0, 0, 0, 0, 0, 0
"DEV_258881", 12.47, 1,    7472.67,   -1.0,    1.0379, 0, 0, 0, 0, 0, 0, 0, 0
"DEV_258818", 12.47, 1,    7472.67,   -1.0,    1.0379, 0, 0, 0, 0, 0, 0, 0, 0
"DEV_258825", 12.47, 1,    7474.82,   -1.0,    1.0382, 0, 0, 0, 0, 0, 0, 0, 0
"DEV_258823", 12.47, 1,    7474.82,   -1.0,    1.0382, 0, 0, 0, 0, 0, 0, 0, 0
"DEV_258839", 12.47, 1,    7472.51,   -1.0,    1.0379, 0, 0, 0, 0, 0, 0, 0, 0
"DEV_258897", 12.47, 1,    7472.51,   -1.0,    1.0379, 0, 0, 0, 0, 0, 0, 0, 0
"DEV_258807", 12.47, 1,    7475.63,   -1.0,    1.0383, 0, 0, 0, 0, 0, 0, 0, 0
"DEV_258885", 12.47, 1,    7475.63,   -1.0,    1.0383, 0, 0, 0, 0, 0, 0, 0, 0
"DEV_259020", 12.47, 1,    7490.71,   -0.9,    1.0404, 2,       7601, -120.0,    1.0558, 3,    7529.63,  120.2,    1.0458
"DEV_259186", 12.47, 1,    7490.71,   -0.9,    1.0404, 2,       7601, -120.0,    1.0558, 3,    7529.63,  120.2,    1.0458
"NODE_613672", 12.47, 1,    7475.26,   -1.0,    1.0383, 2,    7606.66, -120.1,    1.0565, 3,     7528.9,  120.3,    1.0457
"DEV_258057", 12.47, 1,    7475.26,   -1.0,    1.0383, 2,    7606.66, -120.1,    1.0565, 3,     7528.9,  120.3,    1.0457
"DEV_259046", 12.47, 1,    7468.08,   -1.0,    1.0373, 0, 0, 0, 0, 0, 0, 0, 0
"DEV_259145", 12.47, 1,    7468.08,   -1.0,    1.0373, 0, 0, 0, 0, 0, 0, 0, 0
"DEV_259149", 12.47, 1,    7467.35,   -1.0,    1.0372, 0, 0, 0, 0, 0, 0, 0, 0
"DEV_259034", 12.47, 1,    7467.35,   -1.0,    1.0372, 0, 0, 0, 0, 0, 0, 0, 0
"DEV_259151", 12.47, 1,    7466.77,   -1.0,    1.0371, 0, 0, 0, 0, 0, 0, 0, 0
"DEV_259038", 12.47, 1,    7466.77,   -1.0,    1.0371, 0, 0, 0, 0, 0, 0, 0, 0
"DEV_259042", 12.47, 1,    7465.87,   -1.0,     1.037, 0, 0, 0, 0, 0, 0, 0, 0
"DEV_259153", 12.47, 1,    7465.87,   -1.0,     1.037, 0, 0, 0, 0, 0, 0, 0, 0
"DEV_259143", 12.47, 1,    7466.01,   -1.0,     1.037, 0, 0, 0, 0, 0, 0, 0, 0
"DEV_259045", 12.47, 1,    7466.01,   -1.0,     1.037, 0, 0, 0, 0, 0, 0, 0, 0
"DEV_259162", 12.47, 1,    7473.87,   -1.0,    1.0381, 0, 0, 0, 0, 0, 0, 0, 0
"DEV_259161", 12.47, 1,    7473.87,   -1.0,    1.0381, 0, 0, 0, 0, 0, 0, 0, 0
"DEV_259167", 12.47, 1,    7474.79,   -1.0,    1.0382, 0, 0, 0, 0, 0, 0, 0, 0
"DEV_259168", 12.47, 1,    7474.79,   -1.0,    1.0382, 0, 0, 0, 0, 0, 0, 0, 0
"DEV_259173", 12.47, 1,    7475.25,   -1.0,    1.0383, 0, 0, 0, 0, 0, 0, 0, 0
"DEV_259172", 12.47, 1,    7475.25,   -1.0,    1.0383, 0, 0, 0, 0, 0, 0, 0, 0
"DEV_259177", 12.47, 1,    7475.56,   -1.0,    1.0383, 0, 0, 0, 0, 0, 0, 0, 0
"DEV_259178", 12.47, 1,    7475.56,   -1.0,    1.0383, 0, 0, 0, 0, 0, 0, 0, 0
"DEV_259050", 12.47, 1,    7475.72,   -1.0,    1.0384, 2,    7607.08, -120.0,    1.0566, 3,    7528.08,  120.3,    1.0456
"NODE_30049816", 12.47, 1,    7475.72,   -1.0,    1.0384, 2,    7607.08, -120.0,    1.0566, 3,    7528.08,  120.3,    1.0456
"DEV_262522", 12.47, 3,    7555.96,  120.0,    1.0495, 0, 0, 0, 0, 0, 0, 0, 0
"DEV_262470", 12.47, 3,    7555.96,  120.0,    1.0495, 0, 0, 0, 0, 0, 0, 0, 0
"DEV_263529", 12.47, 1,    7557.84,   -0.2,    1.0498, 2,    7574.86, -120.0,    1.0521, 3,    7555.96,  120.0,    1.0495
"DEV_263528", 12.47, 1,    7557.84,   -0.2,    1.0498, 2,    7574.86, -120.0,    1.0521, 3,    7555.96,  120.0,    1.0495
"DEV_263917", 12.47, 3,    7555.96,  120.0,    1.0495, 0, 0, 0, 0, 0, 0, 0, 0
"DEV_263554", 12.47, 3,    7555.96,  120.0,    1.0495, 0, 0, 0, 0, 0, 0, 0, 0
"DEV_263909", 12.47, 3,    7555.96,  120.0,    1.0495, 0, 0, 0, 0, 0, 0, 0, 0
"DEV_263557", 12.47, 3,    7555.96,  120.0,    1.0495, 0, 0, 0, 0, 0, 0, 0, 0
"DEV_263626", 12.47, 1,    7557.86,   -0.2,    1.0498, 0, 0, 0, 0, 0, 0, 0, 0
"DEV_263913", 12.47, 1,    7557.86,   -0.2,    1.0498, 0, 0, 0, 0, 0, 0, 0, 0
"DEV_263630", 12.47, 1,    7557.86,   -0.2,    1.0498, 0, 0, 0, 0, 0, 0, 0, 0
"DEV_263905", 12.47, 1,    7557.86,   -0.2,    1.0498, 0, 0, 0, 0, 0, 0, 0, 0
"DEV_263668", 12.47, 3,    7555.97,  120.0,    1.0495, 0, 0, 0, 0, 0, 0, 0, 0
"DEV_263881", 12.47, 3,    7555.97,  120.0,    1.0495, 0, 0, 0, 0, 0, 0, 0, 0
"DEV_263672", 12.47, 3,    7555.97,  120.0,    1.0495, 0, 0, 0, 0, 0, 0, 0, 0
"DEV_263883", 12.47, 3,    7555.97,  120.0,    1.0495, 0, 0, 0, 0, 0, 0, 0, 0
"DEV_263678", 12.47, 3,    7555.97,  120.0,    1.0495, 0, 0, 0, 0, 0, 0, 0, 0
"DEV_263885", 12.47, 3,    7555.97,  120.0,    1.0495, 0, 0, 0, 0, 0, 0, 0, 0
"DEV_263685", 12.47, 3,    7555.97,  120.0,    1.0495, 0, 0, 0, 0, 0, 0, 0, 0
"DEV_263879", 12.47, 3,    7555.97,  120.0,    1.0495, 0, 0, 0, 0, 0, 0, 0, 0
"DEV_263553", 12.47, 3,    7555.96,  120.0,    1.0495, 0, 0, 0, 0, 0, 0, 0, 0
"DEV_263915", 12.47, 3,    7555.96,  120.0,    1.0495, 0, 0, 0, 0, 0, 0, 0, 0
"DEV_263555", 12.47, 3,    7555.96,  120.0,    1.0495, 0, 0, 0, 0, 0, 0, 0, 0
"DEV_263919", 12.47, 3,    7555.96,  120.0,    1.0495, 0, 0, 0, 0, 0, 0, 0, 0
"DEV_263920", 12.47, 3,    7555.96,  120.0,    1.0495, 0, 0, 0, 0, 0, 0, 0, 0
"DEV_263556", 12.47, 3,    7555.96,  120.0,    1.0495, 0, 0, 0, 0, 0, 0, 0, 0
"DEV_263634", 12.47, 1,    7557.86,   -0.2,    1.0498, 0, 0, 0, 0, 0, 0, 0, 0
"DEV_263717", 12.47, 1,    7557.86,   -0.2,    1.0498, 0, 0, 0, 0, 0, 0, 0, 0
"DEV_263638", 12.47, 1,    7557.86,   -0.2,    1.0498, 0, 0, 0, 0, 0, 0, 0, 0
"DEV_263903", 12.47, 1,    7557.86,   -0.2,    1.0498, 0, 0, 0, 0, 0, 0, 0, 0
"DEV_263640", 12.47, 1,    7557.86,   -0.2,    1.0498, 0, 0, 0, 0, 0, 0, 0, 0
"DEV_263907", 12.47, 1,    7557.86,   -0.2,    1.0498, 0, 0, 0, 0, 0, 0, 0, 0
"DEV_263655", 12.47, 2,    7574.88, -120.0,    1.0521, 0, 0, 0, 0, 0, 0, 0, 0
"DEV_263720", 12.47, 2,    7574.88, -120.0,    1.0521, 0, 0, 0, 0, 0, 0, 0, 0
"DEV_263892", 12.47, 2,    7574.88, -120.0,    1.0521, 0, 0, 0, 0, 0, 0, 0, 0
"DEV_263652", 12.47, 2,    7574.88, -120.0,    1.0521, 0, 0, 0, 0, 0, 0, 0, 0
"DEV_263657", 12.47, 2,    7574.88, -120.0,    1.0521, 0, 0, 0, 0, 0, 0, 0, 0
"DEV_263901", 12.47, 2,    7574.88, -120.0,    1.0521, 0, 0, 0, 0, 0, 0, 0, 0
"DEV_263897", 12.47, 1,    7557.86,   -0.2,    1.0498, 0, 0, 0, 0, 0, 0, 0, 0
"DEV_263644", 12.47, 1,    7557.86,   -0.2,    1.0498, 0, 0, 0, 0, 0, 0, 0, 0
"DEV_263663", 12.47, 2,    7574.88, -120.0,    1.0521, 0, 0, 0, 0, 0, 0, 0, 0
"DEV_263899", 12.47, 2,    7574.88, -120.0,    1.0521, 0, 0, 0, 0, 0, 0, 0, 0
"DEV_263689", 12.47, 3,    7555.97,  120.0,    1.0495, 0, 0, 0, 0, 0, 0, 0, 0
"DEV_263690", 12.47, 3,    7555.97,  120.0,    1.0495, 0, 0, 0, 0, 0, 0, 0, 0
"DEV_263694", 12.47, 3,    7555.97,  120.0,    1.0495, 0, 0, 0, 0, 0, 0, 0, 0
"DEV_263871", 12.47, 3,    7555.97,  120.0,    1.0495, 0, 0, 0, 0, 0, 0, 0, 0
"DEV_263877", 12.47, 3,    7555.97,  120.0,    1.0495, 0, 0, 0, 0, 0, 0, 0, 0
"DEV_263680", 12.47, 3,    7555.97,  120.0,    1.0495, 0, 0, 0, 0, 0, 0, 0, 0
"DEV_263696", 12.47, 3,    7555.97,  120.0,    1.0495, 0, 0, 0, 0, 0, 0, 0, 0
"DEV_263873", 12.47, 3,    7555.97,  120.0,    1.0495, 0, 0, 0, 0, 0, 0, 0, 0
"DEV_263698", 12.47, 3,    7555.97,  120.0,    1.0495, 0, 0, 0, 0, 0, 0, 0, 0
"DEV_263875", 12.47, 3,    7555.97,  120.0,    1.0495, 0, 0, 0, 0, 0, 0, 0, 0
"DEV_263701", 12.47, 3,    7555.98,  120.0,    1.0495, 0, 0, 0, 0, 0, 0, 0, 0
"DEV_263865", 12.47, 3,    7555.98,  120.0,    1.0495, 0, 0, 0, 0, 0, 0, 0, 0
"DEV_263707", 12.47, 3,    7555.98,  120.0,    1.0495, 0, 0, 0, 0, 0, 0, 0, 0
"DEV_263867", 12.47, 3,    7555.98,  120.0,    1.0495, 0, 0, 0, 0, 0, 0, 0, 0
"DEV_263716", 12.47, 3,    7555.98,  120.0,    1.0495, 0, 0, 0, 0, 0, 0, 0, 0
"DEV_263863", 12.47, 3,    7555.98,  120.0,    1.0495, 0, 0, 0, 0, 0, 0, 0, 0
"DEV_263710", 12.47, 3,    7555.98,  120.0,    1.0495, 0, 0, 0, 0, 0, 0, 0, 0
"DEV_263869", 12.47, 3,    7555.98,  120.0,    1.0495, 0, 0, 0, 0, 0, 0, 0, 0
"DEV_263911", 12.47, 1,    7557.86,   -0.2,    1.0498, 0, 0, 0, 0, 0, 0, 0, 0
"DEV_263621", 12.47, 1,    7557.86,   -0.2,    1.0498, 0, 0, 0, 0, 0, 0, 0, 0
"DEV_263895", 12.47, 2,    7574.88, -120.0,    1.0521, 0, 0, 0, 0, 0, 0, 0, 0
"DEV_263622", 12.47, 2,    7574.88, -120.0,    1.0521, 0, 0, 0, 0, 0, 0, 0, 0
"NODE_5011599", 12.47, 1,    7557.86,   -0.2,    1.0498, 2,    7574.88, -120.0,    1.0521, 3,    7555.97,  120.0,    1.0495
"DEV_263842", 12.47, 1,    7557.86,   -0.2,    1.0498, 2,    7574.88, -120.0,    1.0521, 3,    7555.97,  120.0,    1.0495
"NODE_5011570", 12.47, 1,    7557.86,   -0.2,    1.0498, 2,    7574.89, -120.0,    1.0521, 3,    7555.98,  120.0,    1.0495
"DEV_263840", 12.47, 1,    7557.86,   -0.2,    1.0498, 2,    7574.89, -120.0,    1.0521, 3,    7555.98,  120.0,    1.0495
"DEV_263922", 12.47, 1,    7557.86,   -0.2,    1.0498, 2,    7574.88, -120.0,    1.0521, 3,    7555.97,  120.0,    1.0495
"DEV_263923", 12.47, 1,    7557.86,   -0.2,    1.0498, 2,    7574.88, -120.0,    1.0521, 3,    7555.97,  120.0,    1.0495
"DEV_263889", 12.47, 2,    7574.88, -120.0,    1.0521, 0, 0, 0, 0, 0, 0, 0, 0
"DEV_263887", 12.47, 2,    7574.88, -120.0,    1.0521, 0, 0, 0, 0, 0, 0, 0, 0
"DEV_264039", 12.47, 2,    7574.53, -120.0,    1.0521, 0, 0, 0, 0, 0, 0, 0, 0
"DEV_264038", 12.47, 2,    7574.53, -120.0,    1.0521, 0, 0, 0, 0, 0, 0, 0, 0
"DEV_264112", 12.47, 3,    7555.68,  120.0,    1.0495, 0, 0, 0, 0, 0, 0, 0, 0
"DEV_264113", 12.47, 3,    7555.68,  120.0,    1.0495, 0, 0, 0, 0, 0, 0, 0, 0
"DEV_264110", 12.47, 1,    7557.42,   -0.2,    1.0497, 0, 0, 0, 0, 0, 0, 0, 0
"DEV_264111", 12.47, 1,    7557.42,   -0.2,    1.0497, 0, 0, 0, 0, 0, 0, 0, 0
"DEV_264133", 12.47, 1,    7557.42,   -0.2,    1.0497, 0, 0, 0, 0, 0, 0, 0, 0
"DEV_264131", 12.47, 1,    7557.42,   -0.2,    1.0497, 0, 0, 0, 0, 0, 0, 0, 0
"DEV_264985", 12.47, 1,    7557.42,   -0.2,    1.0497, 0, 0, 0, 0, 0, 0, 0, 0
"DEV_264984", 12.47, 1,    7557.42,   -0.2,    1.0497, 0, 0, 0, 0, 0, 0, 0, 0
"DEV_264981", 12.47, 1,    7557.42,   -0.2,    1.0497, 0, 0, 0, 0, 0, 0, 0, 0
"DEV_264980", 12.47, 1,    7557.42,   -0.2,    1.0497, 0, 0, 0, 0, 0, 0, 0, 0
"DEV_265173", 12.47, 1,    7557.22,   -0.2,    1.0497, 2,    7574.28, -120.0,     1.052, 3,    7555.36,  120.0,    1.0494
"DEV_265174", 12.47, 1,    7557.22,   -0.2,    1.0497, 2,    7574.28, -120.0,     1.052, 3,    7555.36,  120.0,    1.0494
"DEV_51045897", 12.47, 1,    7474.02,   -1.0,    1.0381, 0, 0, 0, 0, 0, 0, 0, 0
"DEV_51045898", 12.47, 1,    7474.02,   -1.0,    1.0381, 0, 0, 0, 0, 0, 0, 0, 0
"DEV_51045965", 12.47, 3,    7528.34,  120.3,    1.0457, 0, 0, 0, 0, 0, 0, 0, 0
"DEV_51045966", 12.47, 3,    7528.34,  120.3,    1.0457, 0, 0, 0, 0, 0, 0, 0, 0
"DEV_51045976", 12.47, 3,    7528.28,  120.3,    1.0457, 0, 0, 0, 0, 0, 0, 0, 0
"DEV_51045977", 12.47, 3,    7528.28,  120.3,    1.0457, 0, 0, 0, 0, 0, 0, 0, 0
"DEV_51045983", 12.47, 3,     7528.2,  120.3,    1.0456, 0, 0, 0, 0, 0, 0, 0, 0
"DEV_51045984", 12.47, 3,     7528.2,  120.3,    1.0456, 0, 0, 0, 0, 0, 0, 0, 0
"DEV_51045991", 12.47, 2,    7607.08, -120.0,    1.0566, 0, 0, 0, 0, 0, 0, 0, 0
"DEV_51045992", 12.47, 2,    7607.08, -120.0,    1.0566, 0, 0, 0, 0, 0, 0, 0, 0
"DEV_51045999", 12.47, 2,    7607.08, -120.0,    1.0566, 0, 0, 0, 0, 0, 0, 0, 0
"DEV_51046000", 12.47, 2,    7607.08, -120.0,    1.0566, 0, 0, 0, 0, 0, 0, 0, 0
"DEV_51046006", 12.47, 2,    7607.08, -120.0,    1.0566, 0, 0, 0, 0, 0, 0, 0, 0
"DEV_51046007", 12.47, 2,    7607.08, -120.0,    1.0566, 0, 0, 0, 0, 0, 0, 0, 0
"DEV_51046013", 12.47, 2,    7607.08, -120.0,    1.0566, 0, 0, 0, 0, 0, 0, 0, 0
"DEV_51046014", 12.47, 2,    7607.08, -120.0,    1.0566, 0, 0, 0, 0, 0, 0, 0, 0
"DEV_51046019", 12.47, 2,    7607.08, -120.0,    1.0566, 0, 0, 0, 0, 0, 0, 0, 0
"DEV_51046020", 12.47, 2,    7607.08, -120.0,    1.0566, 0, 0, 0, 0, 0, 0, 0, 0
"DEV_51046031", 12.47, 2,    7607.08, -120.0,    1.0566, 0, 0, 0, 0, 0, 0, 0, 0
"DEV_51046032", 12.47, 2,    7607.08, -120.0,    1.0566, 0, 0, 0, 0, 0, 0, 0, 0
"DEV_51046038", 12.47, 2,    7607.08, -120.0,    1.0566, 0, 0, 0, 0, 0, 0, 0, 0
"DEV_51046039", 12.47, 2,    7607.08, -120.0,    1.0566, 0, 0, 0, 0, 0, 0, 0, 0
"DEV_51046045", 12.47, 3,    7528.47,  120.3,    1.0457, 0, 0, 0, 0, 0, 0, 0, 0
"DEV_51046046", 12.47, 3,    7528.47,  120.3,    1.0457, 0, 0, 0, 0, 0, 0, 0, 0
"DEV_51054582", 12.47, 1,    7469.38,   -1.0,    1.0375, 0, 0, 0, 0, 0, 0, 0, 0
"DEV_51054583", 12.47, 1,    7469.38,   -1.0,    1.0375, 0, 0, 0, 0, 0, 0, 0, 0
"DEV_51067433", 12.47, 1,    7556.63,   -0.2,    1.0496, 0, 0, 0, 0, 0, 0, 0, 0
"DEV_51067434", 12.47, 1,    7556.63,   -0.2,    1.0496, 0, 0, 0, 0, 0, 0, 0, 0
"DEV_51118372", 12.47, 1,    7554.32,   -0.2,    1.0493, 2,    7571.89, -120.0,    1.0517, 3,    7552.94,  120.0,    1.0491
"DEV_51118373", 12.47, 1,    7554.32,   -0.2,    1.0493, 2,    7571.89, -120.0,    1.0517, 3,    7552.94,  120.0,    1.0491
"DEV_51118540", 12.47, 1,    7557.44,   -0.2,    1.0497, 2,    7574.47, -120.0,    1.0521, 3,    7555.56,  120.0,    1.0494
"DEV_51118541", 12.47, 1,    7557.44,   -0.2,    1.0497, 2,    7574.47, -120.0,    1.0521, 3,    7555.56,  120.0,    1.0494
"DEV_51159905", 12.47, 1,    7554.62,   -0.2,    1.0493, 2,    7572.14, -120.0,    1.0518, 3,     7553.2,  120.0,    1.0491
"DEV_51159906", 12.47, 1,    7554.62,   -0.2,    1.0493, 2,    7572.14, -120.0,    1.0518, 3,     7553.2,  120.0,    1.0491
"DEV_51159924", 12.47, 1,     7553.7,   -0.2,    1.0492, 2,    7571.38, -120.0,    1.0516, 3,    7552.42,  120.0,     1.049
"DEV_51159925", 12.47, 1,     7553.7,   -0.2,    1.0492, 2,    7571.38, -120.0,    1.0516, 3,    7552.42,  120.0,     1.049
"DEV_51189819", 12.47, 1,     7508.5,   -0.7,    1.0429, 2,    7592.31, -120.0,    1.0546, 3,    7536.33,  120.2,    1.0468
"DEV_51189820", 12.47, 1,     7508.5,   -0.7,    1.0429, 2,    7592.31, -120.0,    1.0546, 3,    7536.33,  120.2,    1.0468
"DEV_258055", 12.47, 1,    7475.26,   -1.0,    1.0383, 0, 0, 0, 0, 0, 0, 0, 0
"DEV_258060", 12.47, 1,    7475.26,   -1.0,    1.0383, 2,    7606.66, -120.1,    1.0565, 3,     7528.9,  120.3,    1.0457
"DEV_259015", 12.47, 1,    7490.71,   -0.9,    1.0404, 2,       7601, -120.0,    1.0558, 3,    7529.63,  120.2,    1.0458
"DEV_259016", 12.47, 1,    7490.71,   -0.9,    1.0404, 2,       7601, -120.0,    1.0558, 3,    7529.63,  120.2,    1.0458
"DEV_259023", 12.47, 2,    7606.66, -120.1,    1.0565, 0, 0, 0, 0, 0, 0, 0, 0
"DEV_259025", 12.47, 3,     7528.9,  120.3,    1.0457, 0, 0, 0, 0, 0, 0, 0, 0
"DEV_259026", 12.47, 1,    7475.26,   -1.0,    1.0383, 0, 0, 0, 0, 0, 0, 0, 0
"DEV_259027", 12.47, 2,    7606.66, -120.1,    1.0565, 0, 0, 0, 0, 0, 0, 0, 0
"DEV_259028", 12.47, 3,     7528.9,  120.3,    1.0457, 0, 0, 0, 0, 0, 0, 0, 0
"DEV_259048", 12.47, 1,    7475.72,   -1.0,    1.0384, 0, 0, 0, 0, 0, 0, 0, 0
"DEV_259049", 12.47, 2,    7607.08, -120.0,    1.0566, 0, 0, 0, 0, 0, 0, 0, 0
"DEV_259159", 12.47, 1,    7475.72,   -1.0,    1.0384, 2,    7607.08, -120.0,    1.0566, 3,    7528.08,  120.3,    1.0456
"DEV_259051", 12.47, 2,    7607.08, -120.0,    1.0566, 0, 0, 0, 0, 0, 0, 0, 0
"DEV_259052", 12.47, 1,    7475.72,   -1.0,    1.0384, 0, 0, 0, 0, 0, 0, 0, 0
"DEV_259157", 12.47, 3,    7528.08,  120.3,    1.0456, 0, 0, 0, 0, 0, 0, 0, 0
"DEV_259158", 12.47, 3,    7528.08,  120.3,    1.0456, 0, 0, 0, 0, 0, 0, 0, 0
"DEV_263530", 12.47, 1,    7557.84,   -0.2,    1.0498, 2,    7574.86, -120.0,    1.0521, 3,    7555.96,  120.0,    1.0495
"DEV_263531", 12.47, 1,    7557.84,   -0.2,    1.0498, 2,    7574.86, -120.0,    1.0521, 3,    7555.96,  120.0,    1.0495
"DEV_263784", 12.47, 3,    7555.98,  120.0,    1.0495, 0, 0, 0, 0, 0, 0, 0, 0
"DEV_263785", 12.47, 3,    7555.98,  120.0,    1.0495, 0, 0, 0, 0, 0, 0, 0, 0
"DEV_263811", 12.47, 1,    7557.86,   -0.2,    1.0498, 0, 0, 0, 0, 0, 0, 0, 0
"DEV_263812", 12.47, 2,    7574.89, -120.0,    1.0521, 0, 0, 0, 0, 0, 0, 0, 0
"DEV_263813", 12.47, 2,    7574.89, -120.0,    1.0521, 0, 0, 0, 0, 0, 0, 0, 0
"DEV_263814", 12.47, 1,    7557.86,   -0.2,    1.0498, 0, 0, 0, 0, 0, 0, 0, 0
"DEV_263815", 12.47, 3,    7555.97,  120.0,    1.0495, 0, 0, 0, 0, 0, 0, 0, 0
"DEV_263816", 12.47, 1,    7557.86,   -0.2,    1.0498, 0, 0, 0, 0, 0, 0, 0, 0
"DEV_263818", 12.47, 2,    7574.88, -120.0,    1.0521, 0, 0, 0, 0, 0, 0, 0, 0
"DEV_263819", 12.47, 3,    7555.97,  120.0,    1.0495, 0, 0, 0, 0, 0, 0, 0, 0
"DEV_263820", 12.47, 2,    7574.88, -120.0,    1.0521, 0, 0, 0, 0, 0, 0, 0, 0
"DEV_263821", 12.47, 1,    7557.86,   -0.2,    1.0498, 0, 0, 0, 0, 0, 0, 0, 0
"DEV_263834", 12.47, 1,    7557.86,   -0.2,    1.0498, 2,    7574.88, -120.0,    1.0521, 3,    7555.97,  120.0,    1.0495
"DEV_263841", 12.47, 1,    7557.86,   -0.2,    1.0498, 2,    7574.89, -120.0,    1.0521, 3,    7555.98,  120.0,    1.0495
"DEV_263843", 12.47, 1,    7557.86,   -0.2,    1.0498, 2,    7574.88, -120.0,    1.0521, 3,    7555.97,  120.0,    1.0495
"DEV_263851", 12.47, 1,    7557.86,   -0.2,    1.0498, 2,    7574.88, -120.0,    1.0521, 3,    7555.97,  120.0,    1.0495
"DEV_264990", 12.47, 1,    7556.52,   -0.2,    1.0496, 2,     7573.7, -120.0,     1.052, 3,    7554.78,  120.0,    1.0493
"DEV_264991", 12.47, 1,    7556.52,   -0.2,    1.0496, 2,     7573.7, -120.0,     1.052, 3,    7554.78,  120.0,    1.0493
"DEV_265175", 12.47, 1,    7557.22,   -0.2,    1.0497, 2,    7574.28, -120.0,     1.052, 3,    7555.36,  120.0,    1.0494
"DEV_265176", 12.47, 1,    7557.22,   -0.2,    1.0497, 2,    7574.28, -120.0,     1.052, 3,    7555.36,  120.0,    1.0494
"DEV_265584", 12.47, 1,    7555.04,   -0.2,    1.0494, 2,    7572.49, -120.0,    1.0518, 3,    7553.55,  120.0,    1.0492
"NODE_628203", 12.47, 1,    7555.04,   -0.2,    1.0494, 2,    7572.49, -120.0,    1.0518, 3,    7553.55,  120.0,    1.0492
"DEV_51058546", 12.47, 1,    7508.47,   -0.7,    1.0429, 2,    7592.28, -120.0,    1.0545, 3,    7536.29,  120.2,    1.0468
"DEV_51080616", 12.47, 1,    7508.47,   -0.7,    1.0429, 2,    7592.28, -120.0,    1.0545, 3,    7536.29,  120.2,    1.0468
"DEV_51118374", 12.47, 1,    7554.32,   -0.2,    1.0493, 2,    7571.89, -120.0,    1.0517, 3,    7552.94,  120.0,    1.0491
"DEV_51118375", 12.47, 1,    7554.32,   -0.2,    1.0493, 2,    7571.89, -120.0,    1.0517, 3,    7552.94,  120.0,    1.0491
"DEV_51118542", 12.47, 1,    7557.44,   -0.2,    1.0497, 2,    7574.47, -120.0,    1.0521, 3,    7555.56,  120.0,    1.0494
"DEV_51118543", 12.47, 1,    7557.44,   -0.2,    1.0497, 2,    7574.47, -120.0,    1.0521, 3,    7555.56,  120.0,    1.0494
"DEV_51159907", 12.47, 1,    7554.62,   -0.2,    1.0493, 2,    7572.14, -120.0,    1.0518, 3,     7553.2,  120.0,    1.0491
"DEV_51159908", 12.47, 1,    7554.62,   -0.2,    1.0493, 2,    7572.14, -120.0,    1.0518, 3,     7553.2,  120.0,    1.0491
"DEV_51159926", 12.47, 1,     7553.7,   -0.2,    1.0492, 2,    7571.38, -120.0,    1.0516, 3,    7552.42,  120.0,     1.049
"DEV_51159927", 12.47, 1,     7553.7,   -0.2,    1.0492, 2,    7571.38, -120.0,    1.0516, 3,    7552.42,  120.0,     1.049
"DEV_51187193", 12.47, 1,    7555.04,   -0.2,    1.0494, 2,    7572.49, -120.0,    1.0518, 3,    7553.55,  120.0,    1.0492
"DEV_51189821", 12.47, 1,     7508.5,   -0.7,    1.0429, 2,    7592.31, -120.0,    1.0546, 3,    7536.33,  120.2,    1.0468
"DEV_51189822", 12.47, 1,     7508.5,   -0.7,    1.0429, 2,    7592.31, -120.0,    1.0546, 3,    7536.33,  120.2,    1.0468
"NODE_559690", 12.47, 3,    7528.36,  120.3,    1.0457, 0, 0, 0, 0, 0, 0, 0, 0
"DEV_257789", 12.47, 3,    7528.36,  120.3,    1.0457, 0, 0, 0, 0, 0, 0, 0, 0
"PRI_257609", 12.47, 3,    7528.36,  120.3,    1.0457, 0, 0, 0, 0, 0, 0, 0, 0
"NODE_559756", 12.47, 3,    7528.36,  120.3,    1.0457, 0, 0, 0, 0, 0, 0, 0, 0
"DEV_257509", 12.47, 3,    7528.36,  120.3,    1.0457, 0, 0, 0, 0, 0, 0, 0, 0
"NODE_30111897", 12.47, 3,    7528.36,  120.3,    1.0457, 0, 0, 0, 0, 0, 0, 0, 0
"DEV_257790", 12.47, 3,    7528.36,  120.3,    1.0457, 0, 0, 0, 0, 0, 0, 0, 0
"DEV_257799", 12.47, 3,    7528.36,  120.3,    1.0457, 0, 0, 0, 0, 0, 0, 0, 0
"DEV_257791", 12.47, 3,    7528.36,  120.3,    1.0457, 0, 0, 0, 0, 0, 0, 0, 0
"PRI_257805", 12.47, 3,    7528.36,  120.3,    1.0457, 0, 0, 0, 0, 0, 0, 0, 0
"DEV_257565", 12.47, 3,    7528.36,  120.3,    1.0457, 0, 0, 0, 0, 0, 0, 0, 0
"DEV_257795", 12.47, 3,    7528.36,  120.3,    1.0457, 0, 0, 0, 0, 0, 0, 0, 0
"DEV_257809", 12.47, 3,    7528.36,  120.3,    1.0457, 0, 0, 0, 0, 0, 0, 0, 0
"DEV_257810", 12.47, 3,    7528.36,  120.3,    1.0457, 0, 0, 0, 0, 0, 0, 0, 0
"DEV_257812", 12.47, 3,    7528.36,  120.3,    1.0457, 0, 0, 0, 0, 0, 0, 0, 0
"DEV_257814", 12.47, 3,    7528.36,  120.3,    1.0457, 0, 0, 0, 0, 0, 0, 0, 0
"DEV_257816", 12.47, 3,    7528.36,  120.3,    1.0457, 0, 0, 0, 0, 0, 0, 0, 0
"DEV_257820", 12.47, 3,    7528.36,  120.3,    1.0457, 0, 0, 0, 0, 0, 0, 0, 0
"PRI_257824", 12.47, 3,    7528.36,  120.3,    1.0457, 0, 0, 0, 0, 0, 0, 0, 0
"DEV_258994", 12.47, 1,    7496.51,   -0.8,    1.0412, 2,    7598.34, -120.0,    1.0554, 3,    7531.88,  120.2,    1.0462
"NODE_609020", 12.47, 1,    7490.89,   -0.9,    1.0405, 2,    7601.18, -120.0,    1.0558, 3,    7529.81,  120.2,    1.0459
"NODE_609022", 12.47, 1,    7480.62,   -1.0,     1.039, 2,       7605, -120.0,    1.0563, 3,    7528.38,  120.2,    1.0457
"NODE_609096", 12.47, 1,    7477.72,   -1.0,    1.0386, 2,    7606.08, -120.0,    1.0565, 3,    7527.98,  120.3,    1.0456
"DEV_258913", 12.47, 1,    7490.89,   -0.9,    1.0405, 2,    7601.18, -120.0,    1.0558, 3,     7529.8,  120.2,    1.0459
"DEV_258789", 12.47, 1,    7490.89,   -0.9,    1.0405, 2,    7601.18, -120.0,    1.0558, 3,     7529.8,  120.2,    1.0459
"DEV_258893", 12.47, 1,    7477.67,   -1.0,    1.0386, 2,    7606.11, -120.0,    1.0565, 3,    7527.96,  120.3,    1.0456
"NODE_11021908", 12.47, 1,    7498.03,   -0.8,    1.0415, 2,    7597.57, -120.0,    1.0553, 3,    7532.45,  120.2,    1.0462
"DEV_258796", 12.47, 1,    7477.69,   -1.0,    1.0386, 0, 0, 0, 0, 0, 0, 0, 0
"NODE_613383", 12.47, 1,    7529.14,   -0.5,    1.0458, 2,    7582.18, -120.0,    1.0531, 3,     7543.6,  120.1,    1.0478
"NODE_11021869", 12.47, 1,    7535.16,   -0.4,    1.0466, 2,    7579.15, -120.0,    1.0527, 3,    7545.79,  120.1,    1.0481
"DEV_259251", 12.47, 1,    7529.14,   -0.5,    1.0458, 2,    7582.18, -120.0,    1.0531, 3,     7543.6,  120.1,    1.0478
"NODE_613393", 12.47, 1,    7528.02,   -0.5,    1.0456, 2,    7582.75, -120.0,    1.0532, 3,    7543.19,  120.1,    1.0477
"NODE_613395", 12.47, 1,    7524.78,   -0.5,    1.0452, 2,    7584.39, -120.0,    1.0535, 3,    7542.01,  120.1,    1.0476
"NODE_613398", 12.47, 1,    7523.26,   -0.6,     1.045, 2,    7585.16, -120.0,    1.0536, 3,    7541.45,  120.1,    1.0475
"NODE_613405", 12.47, 1,    7520.85,   -0.6,    1.0446, 2,     7586.1, -120.0,    1.0537, 3,    7540.77,  120.1,    1.0474
"NODE_613407", 12.47, 1,    7520.08,   -0.6,    1.0445, 2,     7586.4, -120.0,    1.0537, 3,    7540.55,  120.1,    1.0474
"NODE_11021868", 12.47, 1,    7518.96,   -0.6,    1.0444, 2,    7586.96, -120.0,    1.0538, 3,    7540.14,  120.1,    1.0473
"NODE_11021870", 12.47, 1,     7535.9,   -0.4,    1.0467, 2,    7578.77, -120.0,    1.0527, 3,    7546.06,  120.1,    1.0481
"DEV_51077536", 12.47, 1,    7508.54,   -0.7,    1.0429, 2,    7592.35, -120.0,    1.0546, 3,    7536.36,  120.2,    1.0468
"DEV_260853", 12.47, 1,    7508.54,   -0.7,    1.0429, 2,    7592.35, -120.0,    1.0546, 3,    7536.36,  120.2,    1.0468
"NODE_632693", 12.47, 1,    7508.54,   -0.7,    1.0429, 2,    7592.35, -120.0,    1.0546, 3,    7536.36,  120.2,    1.0468
"DEV_260852", 12.47, 1,    7508.54,   -0.7,    1.0429, 2,    7592.35, -120.0,    1.0546, 3,    7536.36,  120.2,    1.0468
"DEV_260851", 12.47, 1,    7508.54,   -0.7,    1.0429, 2,    7592.35, -120.0,    1.0546, 3,    7536.36,  120.2,    1.0468
"NODE_630664", 12.47, 1,    7508.54,   -0.7,    1.0429, 2,    7592.35, -120.0,    1.0546, 3,    7536.36,  120.2,    1.0468
"NODE_11021960", 12.47, 1,    7508.54,   -0.7,    1.0429, 2,    7592.35, -120.0,    1.0546, 3,    7536.36,  120.2,    1.0468
"DEV_260934", 12.47, 1,    7508.54,   -0.7,    1.0429, 3,    7536.36,  120.2,    1.0468, 0, 0, 0, 0
"DEV_51187136", 12.47, 1,    7508.54,   -0.7,    1.0429, 3,    7536.36,  120.2,    1.0468, 0, 0, 0, 0
"NODE_11021962", 12.47, 1,    7508.54,   -0.7,    1.0429, 3,    7536.36,  120.2,    1.0468, 0, 0, 0, 0
"NODE_11021963", 12.47, 1,    7508.54,   -0.7,    1.0429, 3,    7536.36,  120.2,    1.0468, 0, 0, 0, 0
"DEV_260933", 12.47, 1,    7508.54,   -0.7,    1.0429, 3,    7536.36,  120.2,    1.0468, 0, 0, 0, 0
"DEV_260951", 12.47, 1,    7508.54,   -0.7,    1.0429, 2,    7592.35, -120.0,    1.0546, 3,    7536.36,  120.2,    1.0468
"NODE_630695", 12.47, 1,    7508.54,   -0.7,    1.0429, 2,    7592.35, -120.0,    1.0546, 3,    7536.36,  120.2,    1.0468
"DEV_50012016", 12.47, 1,    7508.54,   -0.7,    1.0429, 2,    7592.35, -120.0,    1.0546, 3,    7536.36,  120.2,    1.0468
"DEV_260944", 12.47, 1,    7508.54,   -0.7,    1.0429, 2,    7592.35, -120.0,    1.0546, 3,    7536.36,  120.2,    1.0468
"NODE_630679", 12.47, 1,    7508.54,   -0.7,    1.0429, 2,    7592.35, -120.0,    1.0546, 3,    7536.36,  120.2,    1.0468
"NODE_630677", 12.47, 1,    7508.54,   -0.7,    1.0429, 2,    7592.35, -120.0,    1.0546, 3,    7536.36,  120.2,    1.0468
"DEV_260942", 12.47, 1,    7508.54,   -0.7,    1.0429, 2,    7592.35, -120.0,    1.0546, 3,    7536.36,  120.2,    1.0468
"DEV_260949", 12.47, 1,    7508.54,   -0.7,    1.0429, 2,    7592.35, -120.0,    1.0546, 3,    7536.36,  120.2,    1.0468
"DEV_260948", 12.47, 1,    7508.54,   -0.7,    1.0429, 2,    7592.35, -120.0,    1.0546, 3,    7536.36,  120.2,    1.0468
"NODE_11021965", 12.47, 1,    7508.54,   -0.7,    1.0429, 2,    7592.35, -120.0,    1.0546, 3,    7536.36,  120.2,    1.0468
"DEV_260953", 12.47, 1,    7508.54,   -0.7,    1.0429, 2,    7592.35, -120.0,    1.0546, 3,    7536.36,  120.2,    1.0468
"NODE_11021961", 12.47, 1,    7508.54,   -0.7,    1.0429, 3,    7536.36,  120.2,    1.0468, 0, 0, 0, 0
"NODE_630598", 12.47, 1,    7508.54,   -0.7,    1.0429, 3,    7536.36,  120.2,    1.0468, 0, 0, 0, 0
"DEV_261171", 12.47, 1,    7508.54,   -0.7,    1.0429, 3,    7536.36,  120.2,    1.0468, 0, 0, 0, 0
"PRI_261399", 12.47, 1,    7508.51,   -0.7,    1.0429, 3,    7536.34,  120.2,    1.0468, 0, 0, 0, 0
"NODE_11021973", 12.47, 1,    7508.51,   -0.7,    1.0429, 3,    7536.34,  120.2,    1.0468, 0, 0, 0, 0
"DEV_261404", 12.47, 1,    7508.51,   -0.7,    1.0429, 2,    7592.32, -120.0,    1.0546, 3,    7536.33,  120.2,    1.0468
"NODE_11021972", 12.47, 1,    7508.51,   -0.7,    1.0429, 2,    7592.32, -120.0,    1.0546, 3,    7536.33,  120.2,    1.0468
"NODE_618744", 12.47, 1,    7508.51,   -0.7,    1.0429, 2,    7592.32, -120.0,    1.0546, 3,    7536.33,  120.2,    1.0468
"NODE_618756", 12.47, 1,    7508.51,   -0.7,    1.0429, 2,    7592.32, -120.0,    1.0546, 3,    7536.33,  120.2,    1.0468
"NODE_11021974", 12.47, 1,    7508.51,   -0.7,    1.0429, 2,    7592.32, -120.0,    1.0546, 0, 0, 0, 0
"NODE_11021975", 12.47, 1,    7508.51,   -0.7,    1.0429, 2,    7592.32, -120.0,    1.0546, 3,    7536.33,  120.2,    1.0468
"DEV_261428", 12.47, 1,    7508.51,   -0.7,    1.0429, 3,    7536.33,  120.2,    1.0468, 0, 0, 0, 0
"DEV_261482", 12.47, 1,     7508.5,   -0.7,    1.0429, 3,    7536.33,  120.2,    1.0468, 0, 0, 0, 0
"DEV_261481", 12.47, 1,     7508.5,   -0.7,    1.0429, 3,    7536.33,  120.2,    1.0468, 0, 0, 0, 0
"PRI_261480", 12.47, 1,     7508.5,   -0.7,    1.0429, 3,    7536.33,  120.2,    1.0468, 0, 0, 0, 0
"DEV_261484", 12.47, 1,    7508.51,   -0.7,    1.0429, 2,    7592.32, -120.0,    1.0546, 0, 0, 0, 0
"PRI_261485", 12.47, 1,    7508.51,   -0.7,    1.0429, 2,    7592.32, -120.0,    1.0546, 0, 0, 0, 0
"DEV_261487", 12.47, 1,    7508.51,   -0.7,    1.0429, 2,    7592.32, -120.0,    1.0546, 3,    7536.33,  120.2,    1.0468
"DEV_261490", 12.47, 1,    7508.51,   -0.7,    1.0429, 2,    7592.32, -120.0,    1.0546, 3,    7536.33,  120.2,    1.0468
"PRI_261489", 12.47, 1,    7508.51,   -0.7,    1.0429, 2,    7592.32, -120.0,    1.0546, 3,    7536.33,  120.2,    1.0468
"DEV_261492", 12.47, 1,    7508.51,   -0.7,    1.0429, 2,    7592.32, -120.0,    1.0546, 3,    7536.33,  120.2,    1.0468
"NODE_11021907", 12.47, 1,    7508.49,   -0.7,    1.0429, 2,    7592.29, -120.0,    1.0545, 3,    7536.31,  120.2,    1.0468
"PRI_261493", 12.47, 1,    7508.49,   -0.7,    1.0429, 2,    7592.29, -120.0,    1.0545, 3,    7536.31,  120.2,    1.0468
"NODE_609912", 12.47, 1,    7503.47,   -0.8,    1.0422, 2,    7594.81, -120.0,    1.0549, 3,    7534.45,  120.2,    1.0465
"DEV_261606", 12.47, 1,    7503.47,   -0.8,    1.0422, 2,    7594.81, -120.0,    1.0549, 3,    7534.45,  120.2,    1.0465
...