dssFiles/Mikilua_EXP_VOLTAGES.CSV
Bus, BasekV, Node1, Magnitude1, Angle1, pu1, Node2, Magnitude2, Angle2, pu2, Node3, Magnitude3, Angle3, pu3
"SOURCEBUS", 46, 1,    27356.2,    0.0,    1.0301, 2,    27355.7, -120.0,      1.03, 3,    27343.8,  120.0,    1.0296
"XFMRM34", 12.47, 1,    7369.33,    0.0,    1.0236, 2,    7369.31, -120.0,    1.0236, 3,    7365.98,  120.0,    1.0231
"DEV_258083", 12.47, 1,    7300.08,   -1.0,     1.014, 0, 0, 0, 0, 0, 0, 0, 0
"DEV_258183", 12.47, 1,    7300.08,   -1.0,     1.014, 0, 0, 0, 0, 0, 0, 0, 0
"DEV_258175", 12.47, 1,    7299.14,   -1.0,    1.0138, 0, 0, 0, 0, 0, 0, 0, 0
"DEV_258084", 12.47, 1,    7299.14,   -1.0,    1.0138, 0, 0, 0, 0, 0, 0, 0, 0
"DEV_258082", 12.47, 1,    7299.57,   -1.0,    1.0139, 0, 0, 0, 0, 0, 0, 0, 0
"DEV_258185", 12.47, 1,    7299.57,   -1.0,    1.0139, 0, 0, 0, 0, 0, 0, 0, 0
"DEV_258074", 12.47, 1,    7295.58,   -1.0,    1.0133, 0, 0, 0, 0, 0, 0, 0, 0
"DEV_258195", 12.47, 1,    7295.58,   -1.0,    1.0133, 0, 0, 0, 0, 0, 0, 0, 0
"DEV_258078", 12.47, 1,    7295.53,   -1.0,    1.0133, 0, 0, 0, 0, 0, 0, 0, 0
"DEV_258191", 12.47, 1,    7295.53,   -1.0,    1.0133, 0, 0, 0, 0, 0, 0, 0, 0
"DEV_258081", 12.47, 1,    7295.57,   -1.0,    1.0133, 0, 0, 0, 0, 0, 0, 0, 0
"DEV_258181", 12.47, 1,    7295.57,   -1.0,    1.0133, 0, 0, 0, 0, 0, 0, 0, 0
"DEV_258173", 12.47, 1,    7299.35,   -1.0,    1.0139, 0, 0, 0, 0, 0, 0, 0, 0
"DEV_258152", 12.47, 1,    7299.35,   -1.0,    1.0139, 0, 0, 0, 0, 0, 0, 0, 0
"DEV_258210", 12.47, 1,    7296.29,   -1.0,    1.0134, 0, 0, 0, 0, 0, 0, 0, 0
"DEV_258211", 12.47, 1,    7296.29,   -1.0,    1.0134, 0, 0, 0, 0, 0, 0, 0, 0
"DEV_258793", 12.47, 1,    7300.33,   -1.0,     1.014, 0, 0, 0, 0, 0, 0, 0, 0
"DEV_258894", 12.47, 1,    7300.33,   -1.0,     1.014, 0, 0, 0, 0, 0, 0, 0, 0
"DEV_258813", 12.47, 1,    7303.05,   -1.0,    1.0144, 0, 0, 0, 0, 0, 0, 0, 0
"DEV_258887", 12.47, 1,    7303.05,   -1.0,    1.0144, 0, 0, 0, 0, 0, 0, 0, 0
"DEV_258881", 12.47, 1,    7300.19,   -1.0,     1.014, 0, 0, 0, 0, 0, 0, 0, 0
"DEV_258818", 12.47, 1,    7300.19,   -1.0,     1.014, 0, 0, 0, 0, 0, 0, 0, 0
"DEV_258825", 12.47, 1,    7301.56,   -1.0,    1.0142, 0, 0, 0, 0, 0, 0, 0, 0
"DEV_258823", 12.47, 1,    7301.56,   -1.0,    1.0142, 0, 0, 0, 0, 0, 0, 0, 0
"DEV_258839", 12.47, 1,    7300.14,   -1.0,     1.014, 0, 0, 0, 0, 0, 0, 0, 0
"DEV_258897", 12.47, 1,    7300.14,   -1.0,     1.014, 0, 0, 0, 0, 0, 0, 0, 0
"DEV_258807", 12.47, 1,    7302.33,   -1.0,    1.0143, 0, 0, 0, 0, 0, 0, 0, 0
"DEV_258885", 12.47, 1,    7302.33,   -1.0,    1.0143, 0, 0, 0, 0, 0, 0, 0, 0
"DEV_259020", 12.47, 1,    7310.76,   -1.0,    1.0154, 2,    7389.19, -119.6,    1.0263, 3,    7236.44,  119.4,    1.0051
"DEV_259186", 12.47, 1,    7310.76,   -1.0,    1.0154, 2,    7389.19, -119.6,    1.0263, 3,    7236.44,  119.4,    1.0051
"NODE_613672", 12.47, 1,    7302.27,   -1.0,    1.0143, 2,    7392.26, -119.6,    1.0268, 3,    7228.76,  119.4,    1.0041
"DEV_258057", 12.47, 1,    7302.27,   -1.0,    1.0143, 2,    7392.26, -119.6,    1.0268, 3,    7228.76,  119.4,    1.0041
"DEV_259046", 12.47, 1,    7297.23,   -1.0,    1.0136, 0, 0, 0, 0, 0, 0, 0, 0
"DEV_259145", 12.47, 1,    7297.23,   -1.0,    1.0136, 0, 0, 0, 0, 0, 0, 0, 0
"DEV_259149", 12.47, 1,    7296.69,   -1.0,    1.0135, 0, 0, 0, 0, 0, 0, 0, 0
"DEV_259034", 12.47, 1,    7296.69,   -1.0,    1.0135, 0, 0, 0, 0, 0, 0, 0, 0
"DEV_259151", 12.47, 1,     7296.3,   -1.0,    1.0134, 0, 0, 0, 0, 0, 0, 0, 0
"DEV_259038", 12.47, 1,     7296.3,   -1.0,    1.0134, 0, 0, 0, 0, 0, 0, 0, 0
"DEV_259042", 12.47, 1,    7295.73,   -1.0,    1.0134, 0, 0, 0, 0, 0, 0, 0, 0
"DEV_259153", 12.47, 1,    7295.73,   -1.0,    1.0134, 0, 0, 0, 0, 0, 0, 0, 0
"DEV_259143", 12.47, 1,    7295.69,   -1.0,    1.0134, 0, 0, 0, 0, 0, 0, 0, 0
"DEV_259045", 12.47, 1,    7295.69,   -1.0,    1.0134, 0, 0, 0, 0, 0, 0, 0, 0
"DEV_259162", 12.47, 1,    7300.79,   -1.0,    1.0141, 0, 0, 0, 0, 0, 0, 0, 0
"DEV_259161", 12.47, 1,    7300.79,   -1.0,    1.0141, 0, 0, 0, 0, 0, 0, 0, 0
"DEV_259167", 12.47, 1,    7301.46,   -1.0,    1.0142, 0, 0, 0, 0, 0, 0, 0, 0
"DEV_259168", 12.47, 1,    7301.46,   -1.0,    1.0142, 0, 0, 0, 0, 0, 0, 0, 0
"DEV_259173", 12.47, 1,    7301.77,   -1.0,    1.0142, 0, 0, 0, 0, 0, 0, 0, 0
"DEV_259172", 12.47, 1,    7301.77,   -1.0,    1.0142, 0, 0, 0, 0, 0, 0, 0, 0
"DEV_259177", 12.47, 1,    7302.02,   -1.0,    1.0142, 0, 0, 0, 0, 0, 0, 0, 0
"DEV_259178", 12.47, 1,    7302.02,   -1.0,    1.0142, 0, 0, 0, 0, 0, 0, 0, 0
"DEV_259050", 12.47, 1,    7302.18,   -1.0,    1.0143, 2,    7392.47, -119.6,    1.0268, 3,    7228.37,  119.4,     1.004
"NODE_30049816", 12.47, 1,    7302.18,   -1.0,    1.0143, 2,    7392.47, -119.6,    1.0268, 3,    7228.37,  119.4,     1.004
"DEV_262522", 12.47, 3,    7162.46,  118.4,   0.99485, 0, 0, 0, 0, 0, 0, 0, 0
"DEV_262470", 12.47, 3,    7162.46,  118.4,   0.99485, 0, 0, 0, 0, 0, 0, 0, 0
"DEV_263529", 12.47, 1,    7212.05,   -1.5,    1.0017, 2,    7213.82, -121.2,     1.002, 3,    7163.71,  118.4,   0.99502
"DEV_263528", 12.47, 1,    7212.05,   -1.5,    1.0017, 2,    7213.82, -121.2,     1.002, 3,    7163.71,  118.4,   0.99502
"DEV_263917", 12.47, 3,    7162.87,  118.4,    0.9949, 0, 0, 0, 0, 0, 0, 0, 0
"DEV_263554", 12.47, 3,    7162.87,  118.4,    0.9949, 0, 0, 0, 0, 0, 0, 0, 0
"DEV_263909", 12.47, 3,    7162.35,  118.4,   0.99483, 0, 0, 0, 0, 0, 0, 0, 0
"DEV_263557", 12.47, 3,    7162.35,  118.4,   0.99483, 0, 0, 0, 0, 0, 0, 0, 0
"DEV_263626", 12.47, 1,     7211.1,   -1.5,    1.0016, 0, 0, 0, 0, 0, 0, 0, 0
"DEV_263913", 12.47, 1,     7211.1,   -1.5,    1.0016, 0, 0, 0, 0, 0, 0, 0, 0
"DEV_263630", 12.47, 1,       7211,   -1.5,    1.0016, 0, 0, 0, 0, 0, 0, 0, 0
"DEV_263905", 12.47, 1,       7211,   -1.5,    1.0016, 0, 0, 0, 0, 0, 0, 0, 0
"DEV_263668", 12.47, 3,    7163.18,  118.4,   0.99495, 0, 0, 0, 0, 0, 0, 0, 0
"DEV_263881", 12.47, 3,    7163.18,  118.4,   0.99495, 0, 0, 0, 0, 0, 0, 0, 0
"DEV_263672", 12.47, 3,    7162.94,  118.4,   0.99491, 0, 0, 0, 0, 0, 0, 0, 0
"DEV_263883", 12.47, 3,    7162.94,  118.4,   0.99491, 0, 0, 0, 0, 0, 0, 0, 0
"DEV_263678", 12.47, 3,     7162.6,  118.4,   0.99487, 0, 0, 0, 0, 0, 0, 0, 0
"DEV_263885", 12.47, 3,    7162.59,  118.4,   0.99487, 0, 0, 0, 0, 0, 0, 0, 0
"DEV_263685", 12.47, 3,     7161.6,  118.4,   0.99473, 0, 0, 0, 0, 0, 0, 0, 0
"DEV_263879", 12.47, 3,     7161.6,  118.4,   0.99473, 0, 0, 0, 0, 0, 0, 0, 0
"DEV_263553", 12.47, 3,    7162.36,  118.4,   0.99483, 0, 0, 0, 0, 0, 0, 0, 0
"DEV_263915", 12.47, 3,    7162.36,  118.4,   0.99483, 0, 0, 0, 0, 0, 0, 0, 0
"DEV_263555", 12.47, 3,    7162.24,  118.4,   0.99482, 0, 0, 0, 0, 0, 0, 0, 0
"DEV_263919", 12.47, 3,    7162.24,  118.4,   0.99482, 0, 0, 0, 0, 0, 0, 0, 0
"DEV_263920", 12.47, 3,    7162.22,  118.4,   0.99481, 0, 0, 0, 0, 0, 0, 0, 0
"DEV_263556", 12.47, 3,    7162.22,  118.4,   0.99481, 0, 0, 0, 0, 0, 0, 0, 0
"DEV_263634", 12.47, 1,    7210.66,   -1.5,    1.0015, 0, 0, 0, 0, 0, 0, 0, 0
"DEV_263717", 12.47, 1,    7210.66,   -1.5,    1.0015, 0, 0, 0, 0, 0, 0, 0, 0
"DEV_263638", 12.47, 1,    7210.53,   -1.5,    1.0015, 0, 0, 0, 0, 0, 0, 0, 0
"DEV_263903", 12.47, 1,    7210.53,   -1.5,    1.0015, 0, 0, 0, 0, 0, 0, 0, 0
"DEV_263640", 12.47, 1,    7210.64,   -1.5,    1.0015, 0, 0, 0, 0, 0, 0, 0, 0
"DEV_263907", 12.47, 1,    7210.64,   -1.5,    1.0015, 0, 0, 0, 0, 0, 0, 0, 0
"DEV_263655", 12.47, 2,    7214.52, -121.2,    1.0021, 0, 0, 0, 0, 0, 0, 0, 0
"DEV_263720", 12.47, 2,    7214.52, -121.2,    1.0021, 0, 0, 0, 0, 0, 0, 0, 0
"DEV_263892", 12.47, 2,    7214.59, -121.2,    1.0021, 0, 0, 0, 0, 0, 0, 0, 0
"DEV_263652", 12.47, 2,    7214.59, -121.2,    1.0021, 0, 0, 0, 0, 0, 0, 0, 0
"DEV_263657", 12.47, 2,    7214.62, -121.2,    1.0021, 0, 0, 0, 0, 0, 0, 0, 0
"DEV_263901", 12.47, 2,    7214.62, -121.2,    1.0021, 0, 0, 0, 0, 0, 0, 0, 0
"DEV_263897", 12.47, 1,    7210.96,   -1.5,    1.0016, 0, 0, 0, 0, 0, 0, 0, 0
"DEV_263644", 12.47, 1,    7210.96,   -1.5,    1.0016, 0, 0, 0, 0, 0, 0, 0, 0
"DEV_263663", 12.47, 2,    7215.07, -121.2,    1.0022, 0, 0, 0, 0, 0, 0, 0, 0
"DEV_263899", 12.47, 2,    7215.07, -121.2,    1.0022, 0, 0, 0, 0, 0, 0, 0, 0
"DEV_263689", 12.47, 3,    7161.48,  118.4,   0.99471, 0, 0, 0, 0, 0, 0, 0, 0
"DEV_263690", 12.47, 3,    7161.48,  118.4,   0.99471, 0, 0, 0, 0, 0, 0, 0, 0
"DEV_263694", 12.47, 3,     7161.5,  118.4,   0.99471, 0, 0, 0, 0, 0, 0, 0, 0
"DEV_263871", 12.47, 3,     7161.5,  118.4,   0.99471, 0, 0, 0, 0, 0, 0, 0, 0
"DEV_263877", 12.47, 3,    7162.39,  118.4,   0.99484, 0, 0, 0, 0, 0, 0, 0, 0
"DEV_263680", 12.47, 3,    7162.39,  118.4,   0.99484, 0, 0, 0, 0, 0, 0, 0, 0
"DEV_263696", 12.47, 3,    7161.67,  118.4,   0.99474, 0, 0, 0, 0, 0, 0, 0, 0
"DEV_263873", 12.47, 3,    7161.67,  118.4,   0.99474, 0, 0, 0, 0, 0, 0, 0, 0
"DEV_263698", 12.47, 3,    7161.86,  118.4,   0.99476, 0, 0, 0, 0, 0, 0, 0, 0
"DEV_263875", 12.47, 3,    7161.86,  118.4,   0.99476, 0, 0, 0, 0, 0, 0, 0, 0
"DEV_263701", 12.47, 3,    7162.32,  118.4,   0.99483, 0, 0, 0, 0, 0, 0, 0, 0
"DEV_263865", 12.47, 3,    7162.32,  118.4,   0.99483, 0, 0, 0, 0, 0, 0, 0, 0
"DEV_263707", 12.47, 3,    7162.78,  118.4,   0.99489, 0, 0, 0, 0, 0, 0, 0, 0
"DEV_263867", 12.47, 3,    7162.78,  118.4,   0.99489, 0, 0, 0, 0, 0, 0, 0, 0
"DEV_263716", 12.47, 3,    7163.88,  118.4,   0.99504, 0, 0, 0, 0, 0, 0, 0, 0
"DEV_263863", 12.47, 3,    7163.88,  118.4,   0.99504, 0, 0, 0, 0, 0, 0, 0, 0
"DEV_263710", 12.47, 3,    7163.31,  118.4,   0.99497, 0, 0, 0, 0, 0, 0, 0, 0
"DEV_263869", 12.47, 3,    7163.31,  118.4,   0.99497, 0, 0, 0, 0, 0, 0, 0, 0
"DEV_263911", 12.47, 1,    7211.36,   -1.5,    1.0016, 0, 0, 0, 0, 0, 0, 0, 0
"DEV_263621", 12.47, 1,    7211.36,   -1.5,    1.0016, 0, 0, 0, 0, 0, 0, 0, 0
"DEV_263895", 12.47, 2,     7214.8, -121.2,    1.0021, 0, 0, 0, 0, 0, 0, 0, 0
"DEV_263622", 12.47, 2,     7214.8, -121.2,    1.0021, 0, 0, 0, 0, 0, 0, 0, 0
"NODE_5011599", 12.47, 1,    7211.49,   -1.5,    1.0017, 2,     7215.1, -121.2,    1.0022, 3,    7164.56,  118.4,   0.99514
"DEV_263842", 12.47, 1,    7211.49,   -1.5,    1.0017, 2,     7215.1, -121.2,    1.0022, 3,    7164.56,  118.4,   0.99514
"NODE_5011570", 12.47, 1,    7211.29,   -1.5,    1.0016, 2,     7215.2, -121.2,    1.0022, 3,    7164.46,  118.4,   0.99512
"DEV_263840", 12.47, 1,    7211.29,   -1.5,    1.0016, 2,     7215.2, -121.2,    1.0022, 3,    7164.46,  118.4,   0.99512
"DEV_263922", 12.47, 1,    7211.44,   -1.5,    1.0017, 2,    7215.06, -121.2,    1.0022, 3,    7164.51,  118.4,   0.99513
"DEV_263923", 12.47, 1,    7211.44,   -1.5,    1.0017, 2,    7215.06, -121.2,    1.0022, 3,    7164.51,  118.4,   0.99513
"DEV_263889", 12.47, 2,    7214.54, -121.2,    1.0021, 0, 0, 0, 0, 0, 0, 0, 0
"DEV_263887", 12.47, 2,    7214.54, -121.2,    1.0021, 0, 0, 0, 0, 0, 0, 0, 0
"DEV_264039", 12.47, 2,    7221.43, -121.2,     1.003, 0, 0, 0, 0, 0, 0, 0, 0
"DEV_264038", 12.47, 2,    7221.43, -121.2,     1.003, 0, 0, 0, 0, 0, 0, 0, 0
"DEV_264112", 12.47, 3,    7168.46,  118.5,   0.99568, 0, 0, 0, 0, 0, 0, 0, 0
"DEV_264113", 12.47, 3,    7168.46,  118.5,   0.99568, 0, 0, 0, 0, 0, 0, 0, 0
"DEV_264110", 12.47, 1,    7197.12,   -1.5,   0.99966, 0, 0, 0, 0, 0, 0, 0, 0
"DEV_264111", 12.47, 1,    7197.12,   -1.5,   0.99966, 0, 0, 0, 0, 0, 0, 0, 0
"DEV_264133", 12.47, 1,    7197.23,   -1.5,   0.99968, 0, 0, 0, 0, 0, 0, 0, 0
"DEV_264131", 12.47, 1,    7197.23,   -1.5,   0.99968, 0, 0, 0, 0, 0, 0, 0, 0
"DEV_264985", 12.47, 1,     7197.4,   -1.5,    0.9997, 0, 0, 0, 0, 0, 0, 0, 0
"DEV_264984", 12.47, 1,     7197.4,   -1.5,    0.9997, 0, 0, 0, 0, 0, 0, 0, 0
"DEV_264981", 12.47, 1,    7198.37,   -1.5,   0.99984, 0, 0, 0, 0, 0, 0, 0, 0
"DEV_264980", 12.47, 1,    7198.37,   -1.5,   0.99984, 0, 0, 0, 0, 0, 0, 0, 0
"DEV_265173", 12.47, 1,    7212.71,   -1.5,    1.0018, 2,    7227.76, -121.2,    1.0039, 3,    7179.11,  118.6,   0.99716
"DEV_265174", 12.47, 1,    7212.71,   -1.5,    1.0018, 2,    7227.76, -121.2,    1.0039, 3,    7179.11,  118.6,   0.99716
"DEV_51045897", 12.47, 1,    7300.84,   -1.0,    1.0141, 0, 0, 0, 0, 0, 0, 0, 0
"DEV_51045898", 12.47, 1,    7300.84,   -1.0,    1.0141, 0, 0, 0, 0, 0, 0, 0, 0
"DEV_51045965", 12.47, 3,    7227.55,  119.4,    1.0039, 0, 0, 0, 0, 0, 0, 0, 0
"DEV_51045966", 12.47, 3,    7227.55,  119.4,    1.0039, 0, 0, 0, 0, 0, 0, 0, 0
"DEV_51045976", 12.47, 3,    7227.77,  119.4,    1.0039, 0, 0, 0, 0, 0, 0, 0, 0
"DEV_51045977", 12.47, 3,    7227.77,  119.4,    1.0039, 0, 0, 0, 0, 0, 0, 0, 0
"DEV_51045983", 12.47, 3,    7227.98,  119.4,    1.0039, 0, 0, 0, 0, 0, 0, 0, 0
"DEV_51045984", 12.47, 3,    7227.98,  119.4,    1.0039, 0, 0, 0, 0, 0, 0, 0, 0
"DEV_51045991", 12.47, 2,    7392.53, -119.6,    1.0268, 0, 0, 0, 0, 0, 0, 0, 0
"DEV_51045992", 12.47, 2,    7392.53, -119.6,    1.0268, 0, 0, 0, 0, 0, 0, 0, 0
"DEV_51045999", 12.47, 2,    7392.61, -119.6,    1.0268, 0, 0, 0, 0, 0, 0, 0, 0
"DEV_51046000", 12.47, 2,    7392.61, -119.6,    1.0268, 0, 0, 0, 0, 0, 0, 0, 0
"DEV_51046006", 12.47, 2,    7392.61, -119.6,    1.0268, 0, 0, 0, 0, 0, 0, 0, 0
"DEV_51046007", 12.47, 2,    7392.61, -119.6,    1.0268, 0, 0, 0, 0, 0, 0, 0, 0
"DEV_51046013", 12.47, 2,    7392.61, -119.6,    1.0268, 0, 0, 0, 0, 0, 0, 0, 0
"DEV_51046014", 12.47, 2,    7392.61, -119.6,    1.0268, 0, 0, 0, 0, 0, 0, 0, 0
"DEV_51046019", 12.47, 2,    7392.61, -119.6,    1.0268, 0, 0, 0, 0, 0, 0, 0, 0
"DEV_51046020", 12.47, 2,    7392.61, -119.6,    1.0268, 0, 0, 0, 0, 0, 0, 0, 0
"DEV_51046031", 12.47, 2,    7392.61, -119.6,    1.0268, 0, 0, 0, 0, 0, 0, 0, 0
"DEV_51046032", 12.47, 2,    7392.61, -119.6,    1.0268, 0, 0, 0, 0, 0, 0, 0, 0
"DEV_51046038", 12.47, 2,    7392.58, -119.6,    1.0268, 0, 0, 0, 0, 0, 0, 0, 0
"DEV_51046039", 12.47, 2,    7392.58, -119.6,    1.0268, 0, 0, 0, 0, 0, 0, 0, 0
"DEV_51046045", 12.47, 3,    7227.52,  119.4,    1.0039, 0, 0, 0, 0, 0, 0, 0, 0
"DEV_51046046", 12.47, 3,    7227.52,  119.4,    1.0039, 0, 0, 0, 0, 0, 0, 0, 0
"DEV_51054582", 12.47, 1,    7297.79,   -1.0,    1.0136, 0, 0, 0, 0, 0, 0, 0, 0
"DEV_51054583", 12.47, 1,    7297.79,   -1.0,    1.0136, 0, 0, 0, 0, 0, 0, 0, 0
"DEV_51067433", 12.47, 1,    7229.53,   -1.3,    1.0042, 0, 0, 0, 0, 0, 0, 0, 0
"DEV_51067434", 12.47, 1,    7229.53,   -1.3,    1.0042, 0, 0, 0, 0, 0, 0, 0, 0
"DEV_51118372", 12.47, 1,    7315.85,   -0.4,    1.0162, 2,    7325.44, -120.3,    1.0175, 3,    7312.11,  119.7,    1.0156
"DEV_51118373", 12.47, 1,    7315.85,   -0.4,    1.0162, 2,    7325.44, -120.3,    1.0175, 3,    7312.11,  119.7,    1.0156
"DEV_51118540", 12.47, 1,    7211.55,   -1.5,    1.0017, 2,    7223.05, -121.2,    1.0033, 3,    7172.89,  118.5,    0.9963
"DEV_51118541", 12.47, 1,    7211.55,   -1.5,    1.0017, 2,    7223.05, -121.2,    1.0033, 3,    7172.89,  118.5,    0.9963
"DEV_51159905", 12.47, 1,    7302.09,   -0.5,    1.0142, 2,    7313.65, -120.4,    1.0158, 3,    7300.75,  119.6,    1.0141
"DEV_51159906", 12.47, 1,    7302.09,   -0.5,    1.0142, 2,    7313.65, -120.4,    1.0158, 3,    7300.75,  119.6,    1.0141
"DEV_51159924", 12.47, 1,    7341.28,   -0.2,    1.0197, 2,    7348.59, -120.1,    1.0207, 3,    7338.65,  119.9,    1.0193
"DEV_51159925", 12.47, 1,    7341.28,   -0.2,    1.0197, 2,    7348.59, -120.1,    1.0207, 3,    7338.65,  119.9,    1.0193
"DEV_51189819", 12.47, 1,    7258.14,   -1.1,    1.0081, 2,    7387.54, -119.4,    1.0261, 3,    7121.49,  119.3,   0.98916
"DEV_51189820", 12.47, 1,    7258.14,   -1.1,    1.0081, 2,    7387.54, -119.4,    1.0261, 3,    7121.49,  119.3,   0.98916
"DEV_258055", 12.47, 1,    7302.27,   -1.0,    1.0143, 0, 0, 0, 0, 0, 0, 0, 0
"DEV_258060", 12.47, 1,    7302.27,   -1.0,    1.0143, 2,    7392.26, -119.6,    1.0268, 3,    7228.76,  119.4,    1.0041
"DEV_259015", 12.47, 1,    7310.76,   -1.0,    1.0154, 2,    7389.19, -119.6,    1.0263, 3,    7236.44,  119.4,    1.0051
"DEV_259016", 12.47, 1,    7310.76,   -1.0,    1.0154, 2,    7389.19, -119.6,    1.0263, 3,    7236.44,  119.4,    1.0051
"DEV_259023", 12.47, 2,    7392.26, -119.6,    1.0268, 0, 0, 0, 0, 0, 0, 0, 0
"DEV_259025", 12.47, 3,    7228.76,  119.4,    1.0041, 0, 0, 0, 0, 0, 0, 0, 0
"DEV_259026", 12.47, 1,    7302.27,   -1.0,    1.0143, 0, 0, 0, 0, 0, 0, 0, 0
"DEV_259027", 12.47, 2,    7392.26, -119.6,    1.0268, 0, 0, 0, 0, 0, 0, 0, 0
"DEV_259028", 12.47, 3,    7228.76,  119.4,    1.0041, 0, 0, 0, 0, 0, 0, 0, 0
"DEV_259048", 12.47, 1,    7302.18,   -1.0,    1.0143, 0, 0, 0, 0, 0, 0, 0, 0
"DEV_259049", 12.47, 2,    7392.47, -119.6,    1.0268, 0, 0, 0, 0, 0, 0, 0, 0
"DEV_259159", 12.47, 1,    7302.18,   -1.0,    1.0143, 2,    7392.47, -119.6,    1.0268, 3,    7228.37,  119.4,     1.004
"DEV_259051", 12.47, 2,    7392.47, -119.6,    1.0268, 0, 0, 0, 0, 0, 0, 0, 0
"DEV_259052", 12.47, 1,    7302.18,   -1.0,    1.0143, 0, 0, 0, 0, 0, 0, 0, 0
"DEV_259157", 12.47, 3,    7228.37,  119.4,     1.004, 0, 0, 0, 0, 0, 0, 0, 0
"DEV_259158", 12.47, 3,    7228.37,  119.4,     1.004, 0, 0, 0, 0, 0, 0, 0, 0
"DEV_263530", 12.47, 1,    7212.05,   -1.5,    1.0017, 2,    7213.82, -121.2,     1.002, 3,    7163.71,  118.4,   0.99502
"DEV_263531", 12.47, 1,    7212.05,   -1.5,    1.0017, 2,    7213.82, -121.2,     1.002, 3,    7163.71,  118.4,   0.99502
"DEV_263784", 12.47, 3,    7164.46,  118.4,   0.99512, 0, 0, 0, 0, 0, 0, 0, 0
"DEV_263785", 12.47, 3,    7164.46,  118.4,   0.99512, 0, 0, 0, 0, 0, 0, 0, 0
"DEV_263811", 12.47, 1,    7211.29,   -1.5,    1.0016, 0, 0, 0, 0, 0, 0, 0, 0
"DEV_263812", 12.47, 2,     7215.2, -121.2,    1.0022, 0, 0, 0, 0, 0, 0, 0, 0
"DEV_263813", 12.47, 2,     7215.2, -121.2,    1.0022, 0, 0, 0, 0, 0, 0, 0, 0
"DEV_263814", 12.47, 1,    7211.29,   -1.5,    1.0016, 0, 0, 0, 0, 0, 0, 0, 0
"DEV_263815", 12.47, 3,    7164.56,  118.4,   0.99514, 0, 0, 0, 0, 0, 0, 0, 0
"DEV_263816", 12.47, 1,    7211.49,   -1.5,    1.0017, 0, 0, 0, 0, 0, 0, 0, 0
"DEV_263818", 12.47, 2,     7215.1, -121.2,    1.0022, 0, 0, 0, 0, 0, 0, 0, 0
"DEV_263819", 12.47, 3,    7164.55,  118.4,   0.99514, 0, 0, 0, 0, 0, 0, 0, 0
"DEV_263820", 12.47, 2,     7215.1, -121.2,    1.0022, 0, 0, 0, 0, 0, 0, 0, 0
"DEV_263821", 12.47, 1,    7211.49,   -1.5,    1.0017, 0, 0, 0, 0, 0, 0, 0, 0
"DEV_263834", 12.47, 1,    7211.44,   -1.5,    1.0017, 2,    7215.06, -121.2,    1.0022, 3,    7164.51,  118.4,   0.99513
"DEV_263841", 12.47, 1,    7211.29,   -1.5,    1.0016, 2,     7215.2, -121.2,    1.0022, 3,    7164.46,  118.4,   0.99512
"DEV_263843", 12.47, 1,    7211.49,   -1.5,    1.0017, 2,     7215.1, -121.2,    1.0022, 3,    7164.56,  118.4,   0.99514
"DEV_263851", 12.47, 1,    7211.44,   -1.5,    1.0017, 2,    7215.06, -121.2,    1.0022, 3,    7164.51,  118.4,   0.99513
"DEV_264990", 12.47, 1,     7233.2,   -1.2,    1.0047, 2,    7247.17, -121.0,    1.0066, 3,    7208.27,  118.8,    1.0012
"DEV_264991", 12.47, 1,     7233.2,   -1.2,    1.0047, 2,    7247.18, -121.0,    1.0066, 3,    7208.28,  118.8,    1.0012
"DEV_265175", 12.47, 1,    7212.71,   -1.5,    1.0018, 2,    7227.76, -121.2,    1.0039, 3,    7179.11,  118.6,   0.99716
"DEV_265176", 12.47, 1,    7212.71,   -1.5,    1.0018, 2,    7227.76, -121.2,    1.0039, 3,    7179.11,  118.6,   0.99716
"DEV_265584", 12.47, 1,    7282.54,   -0.7,    1.0115, 2,    7293.55, -120.6,    1.0131, 3,     7277.1,  119.4,    1.0108
"NODE_628203", 12.47, 1,    7282.54,   -0.7,    1.0115, 2,    7293.55, -120.6,    1.0131, 3,     7277.1,  119.4,    1.0108
"DEV_51058546", 12.47, 1,    7319.42,   -0.8,    1.0166, 2,    7382.14, -119.7,    1.0254, 3,    7253.51,  119.5,    1.0075
"DEV_51080616", 12.47, 1,    7319.42,   -0.8,    1.0166, 2,    7382.14, -119.7,    1.0254, 3,     7253.5,  119.5,    1.0075
"DEV_51118374", 12.47, 1,    7315.85,   -0.4,    1.0162, 2,    7325.44, -120.3,    1.0175, 3,    7312.11,  119.7,    1.0156
"DEV_51118375", 12.47, 1,    7315.85,   -0.4,    1.0162, 2,    7325.44, -120.3,    1.0175, 3,    7312.11,  119.7,    1.0156
"DEV_51118542", 12.47, 1,    7211.55,   -1.5,    1.0017, 2,    7223.05, -121.2,    1.0033, 3,    7172.89,  118.5,    0.9963
"DEV_51118543", 12.47, 1,    7211.55,   -1.5,    1.0017, 2,    7223.05, -121.2,    1.0033, 3,    7172.89,  118.5,    0.9963
"DEV_51159907", 12.47, 1,    7302.09,   -0.5,    1.0142, 2,    7313.65, -120.4,    1.0158, 3,    7300.75,  119.6,    1.0141
"DEV_51159908", 12.47, 1,    7302.09,   -0.5,    1.0142, 2,    7313.65, -120.4,    1.0158, 3,    7300.75,  119.6,    1.0141
"DEV_51159926", 12.47, 1,    7341.28,   -0.2,    1.0197, 2,    7348.59, -120.1,    1.0207, 3,    7338.65,  119.9,    1.0193
"DEV_51159927", 12.47, 1,    7341.28,   -0.2,    1.0197, 2,    7348.59, -120.1,    1.0207, 3,    7338.65,  119.9,    1.0193
"DEV_51187193", 12.47, 1,    7282.54,   -0.7,    1.0115, 2,    7293.55, -120.6,    1.0131, 3,     7277.1,  119.4,    1.0108
"DEV_51189821", 12.47, 1,    7258.14,   -1.1,    1.0081, 2,    7387.54, -119.4,    1.0261, 3,    7121.49,  119.3,   0.98916
"DEV_51189822", 12.47, 1,    7258.14,   -1.1,    1.0081, 2,    7387.54, -119.4,    1.0261, 3,    7121.49,  119.3,   0.98916
"NODE_559690", 12.47, 3,    7226.24,  119.4,    1.0037, 0, 0, 0, 0, 0, 0, 0, 0
"DEV_257789", 12.47, 3,    7226.22,  119.4,    1.0037, 0, 0, 0, 0, 0, 0, 0, 0
"PRI_257609", 12.47, 3,    7226.22,  119.4,    1.0037, 0, 0, 0, 0, 0, 0, 0, 0
"NODE_559756", 12.47, 3,    7227.41,  119.4,    1.0039, 0, 0, 0, 0, 0, 0, 0, 0
"DEV_257509", 12.47, 3,    7227.41,  119.4,    1.0039, 0, 0, 0, 0, 0, 0, 0, 0
"NODE_30111897", 12.47, 3,    7226.36,  119.4,    1.0037, 0, 0, 0, 0, 0, 0, 0, 0
"DEV_257790", 12.47, 3,    7225.86,  119.4,    1.0037, 0, 0, 0, 0, 0, 0, 0, 0
"DEV_257799", 12.47, 3,    7225.86,  119.4,    1.0037, 0, 0, 0, 0, 0, 0, 0, 0
"DEV_257791", 12.47, 3,    7226.18,  119.4,    1.0037, 0, 0, 0, 0, 0, 0, 0, 0
"PRI_257805", 12.47, 3,    7226.18,  119.4,    1.0037, 0, 0, 0, 0, 0, 0, 0, 0
"DEV_257565", 12.47, 3,    7224.31,  119.4,    1.0034, 0, 0, 0, 0, 0, 0, 0, 0
"DEV_257795", 12.47, 3,    7224.21,  119.4,    1.0034, 0, 0, 0, 0, 0, 0, 0, 0
"DEV_257809", 12.47, 3,    7224.64,  119.4,    1.0035, 0, 0, 0, 0, 0, 0, 0, 0
"DEV_257810", 12.47, 3,     7225.1,  119.4,    1.0035, 0, 0, 0, 0, 0, 0, 0, 0
"DEV_257812", 12.47, 3,    7225.35,  119.4,    1.0036, 0, 0, 0, 0, 0, 0, 0, 0
"DEV_257814", 12.47, 3,    7225.89,  119.4,    1.0037, 0, 0, 0, 0, 0, 0, 0, 0
"DEV_257816", 12.47, 3,    7226.75,  119.4,    1.0038, 0, 0, 0, 0, 0, 0, 0, 0
"DEV_257820", 12.47, 3,    7227.47,  119.4,    1.0039, 0, 0, 0, 0, 0, 0, 0, 0
"PRI_257824", 12.47, 3,    7224.21,  119.4,    1.0034, 0, 0, 0, 0, 0, 0, 0, 0
"DEV_258994", 12.47, 1,    7313.64,   -0.9,    1.0158, 2,    7386.76, -119.7,     1.026, 3,    7242.16,  119.4,    1.0059
"NODE_609020", 12.47, 1,    7310.82,   -1.0,    1.0155, 2,    7388.93, -119.6,    1.0263, 3,    7236.82,  119.4,    1.0052
"NODE_609022", 12.47, 1,    7305.35,   -1.0,    1.0147, 2,    7390.99, -119.6,    1.0266, 3,    7230.78,  119.4,    1.0043
"NODE_609096", 12.47, 1,     7303.8,   -1.0,    1.0145, 2,    7391.57, -119.6,    1.0267, 3,    7229.08,  119.4,    1.0041
"DEV_258913", 12.47, 1,    7310.82,   -1.0,    1.0155, 2,    7388.94, -119.6,    1.0263, 3,    7236.81,  119.4,    1.0052
"DEV_258789", 12.47, 1,    7310.82,   -1.0,    1.0155, 2,    7388.94, -119.6,    1.0263, 3,    7236.81,  119.4,    1.0052
"DEV_258893", 12.47, 1,    7303.78,   -1.0,    1.0145, 2,    7391.59, -119.6,    1.0267, 3,    7229.02,  119.4,    1.0041
"NODE_11021908", 12.47, 1,     7314.4,   -0.9,     1.016, 2,    7386.17, -119.7,    1.0259, 3,    7243.61,  119.4,    1.0061
"DEV_258796", 12.47, 1,    7303.78,   -1.0,    1.0145, 0, 0, 0, 0, 0, 0, 0, 0
"NODE_613383", 12.47, 1,    7342.25,   -0.5,    1.0198, 2,    7376.44, -119.8,    1.0246, 3,    7306.22,  119.7,    1.0148
"NODE_11021869", 12.47, 1,    7348.87,   -0.3,    1.0207, 2,    7374.73, -119.9,    1.0243, 3,    7321.66,  119.8,     1.017
"DEV_259251", 12.47, 1,    7342.25,   -0.5,    1.0198, 2,    7376.44, -119.8,    1.0246, 3,    7306.22,  119.7,    1.0148
"NODE_613393", 12.47, 1,    7341.01,   -0.5,    1.0196, 2,    7376.76, -119.8,    1.0246, 3,    7303.33,  119.7,    1.0144
"NODE_613395", 12.47, 1,    7337.47,   -0.5,    1.0192, 2,    7377.69, -119.8,    1.0247, 3,    7295.04,  119.7,    1.0133
"NODE_613398", 12.47, 1,     7335.8,   -0.6,    1.0189, 2,    7378.12, -119.8,    1.0248, 3,    7291.13,  119.6,    1.0127
"NODE_613405", 12.47, 1,    7332.89,   -0.6,    1.0185, 2,    7378.78, -119.8,    1.0249, 3,    7285.47,  119.6,    1.0119
"NODE_613407", 12.47, 1,    7331.96,   -0.6,    1.0184, 2,    7378.99, -119.8,    1.0249, 3,    7283.66,  119.6,    1.0117
"NODE_11021868", 12.47, 1,    7330.74,   -0.6,    1.0182, 2,    7379.31, -119.8,     1.025, 3,    7280.79,  119.6,    1.0113
"NODE_11021870", 12.47, 1,    7349.69,   -0.3,    1.0209, 2,    7374.52, -119.9,    1.0243, 3,    7323.57,  119.8,    1.0172
"DEV_51077536", 12.47, 1,    7229.01,   -1.1,    1.0041, 2,    7350.96, -119.5,     1.021, 3,    7089.85,  119.2,   0.98476
"DEV_260853", 12.47, 1,    7229.04,   -1.1,    1.0041, 2,    7350.93, -119.5,     1.021, 3,    7089.76,  119.2,   0.98475
"NODE_632693", 12.47, 1,    7228.93,   -1.1,    1.0041, 2,    7350.95, -119.5,     1.021, 3,    7089.68,  119.2,   0.98474
"DEV_260852", 12.47, 1,    7228.74,   -1.1,    1.0041, 2,    7350.98, -119.5,     1.021, 3,    7089.53,  119.2,   0.98472
"DEV_260851", 12.47, 1,    7228.61,   -1.1,     1.004, 2,    7351.01, -119.5,     1.021, 3,    7089.32,  119.2,   0.98469
"NODE_630664", 12.47, 1,    7228.27,   -1.1,     1.004, 2,    7351.46, -119.5,    1.0211, 3,    7090.31,  119.2,   0.98483
"NODE_11021960", 12.47, 1,    7228.27,   -1.1,     1.004, 2,    7351.46, -119.5,    1.0211, 3,    7090.31,  119.2,   0.98483
"DEV_260934", 12.47, 1,     7228.2,   -1.1,     1.004, 3,    7090.19,  119.2,   0.98481, 0, 0, 0, 0
"DEV_51187136", 12.47, 1,    7228.23,   -1.1,     1.004, 3,    7090.23,  119.2,   0.98481, 0, 0, 0, 0
"NODE_11021962", 12.47, 1,    7228.17,   -1.1,     1.004, 3,    7090.14,  119.2,    0.9848, 0, 0, 0, 0
"NODE_11021963", 12.47, 1,    7228.12,   -1.1,     1.004, 3,    7090.06,  119.2,   0.98479, 0, 0, 0, 0
"DEV_260933", 12.47, 1,     7228.1,   -1.1,     1.004, 3,    7090.02,  119.2,   0.98479, 0, 0, 0, 0
"DEV_260951", 12.47, 1,     7228.6,   -1.1,     1.004, 2,    7351.38, -119.5,    1.0211, 3,    7090.85,  119.2,    0.9849
"NODE_630695", 12.47, 1,    7228.67,   -1.1,     1.004, 2,    7351.36, -119.5,    1.0211, 3,    7090.96,  119.2,   0.98492
"DEV_50012016", 12.47, 1,    7228.64,   -1.1,     1.004, 2,    7351.37, -119.5,    1.0211, 3,    7090.92,  119.2,   0.98491
"DEV_260944", 12.47, 1,    7228.73,   -1.1,    1.0041, 2,    7351.26, -119.5,    1.0211, 3,    7090.71,  119.2,   0.98488
"NODE_630679", 12.47, 1,    7228.77,   -1.1,    1.0041, 2,    7351.19, -119.5,    1.0211, 3,    7090.53,  119.2,   0.98486
"NODE_630677", 12.47, 1,    7228.82,   -1.1,    1.0041, 2,    7351.12, -119.5,    1.0211, 3,    7090.34,  119.2,   0.98483
"DEV_260942", 12.47, 1,     7228.9,   -1.1,    1.0041, 2,    7351.05, -119.5,     1.021, 3,    7090.12,  119.2,    0.9848
"DEV_260949", 12.47, 1,    7228.69,   -1.1,     1.004, 2,    7351.38, -119.5,    1.0211, 3,    7091.23,  119.2,   0.98495
"DEV_260948", 12.47, 1,    7228.77,   -1.1,    1.0041, 2,    7351.43, -119.5,    1.0211, 3,    7091.76,  119.2,   0.98503
"NODE_11021965", 12.47, 1,    7228.82,   -1.1,    1.0041, 2,    7351.45, -119.5,    1.0211, 3,    7092.09,  119.2,   0.98507
"DEV_260953", 12.47, 1,    7228.67,   -1.1,     1.004, 2,    7351.36, -119.5,    1.0211, 3,    7090.96,  119.2,   0.98492
"NODE_11021961", 12.47, 1,    7228.26,   -1.1,     1.004, 3,    7090.29,  119.2,   0.98482, 0, 0, 0, 0
"NODE_630598", 12.47, 1,    7228.15,   -1.1,     1.004, 3,    7090.11,  119.2,    0.9848, 0, 0, 0, 0
"DEV_261171", 12.47, 1,    7228.15,   -1.1,     1.004, 3,    7090.11,  119.2,    0.9848, 0, 0, 0, 0
"PRI_261399", 12.47, 1,    7247.11,   -1.1,    1.0066, 3,     7125.6,  119.3,   0.98973, 0, 0, 0, 0
"NODE_11021973", 12.47, 1,    7247.11,   -1.1,    1.0066, 3,     7125.6,  119.3,   0.98973, 0, 0, 0, 0
"DEV_261404", 12.47, 1,    7247.76,   -1.1,    1.0067, 2,    7367.65, -119.5,    1.0233, 3,    7128.82,  119.3,   0.99017
"NODE_11021972", 12.47, 1,    7247.88,   -1.1,    1.0067, 2,    7367.77, -119.5,    1.0234, 3,    7128.79,  119.3,   0.99017
"NODE_618744", 12.47, 1,     7247.5,   -1.1,    1.0067, 2,    7367.41, -119.5,    1.0233, 3,    7128.88,  119.3,   0.99018
"NODE_618756", 12.47, 1,    7247.24,   -1.1,    1.0066, 2,    7367.15, -119.5,    1.0233, 3,    7128.94,  119.3,   0.99019
"NODE_11021974", 12.47, 1,    7247.15,   -1.1,    1.0066, 2,     7367.1, -119.5,    1.0233, 0, 0, 0, 0
"NODE_11021975", 12.47, 1,    7247.22,   -1.1,    1.0066, 2,     7367.1, -119.5,    1.0233, 3,    7128.95,  119.3,   0.99019
"DEV_261428", 12.47, 1,     7247.5,   -1.1,    1.0067, 3,    7128.88,  119.3,   0.99018, 0, 0, 0, 0
"DEV_261482", 12.47, 1,    7257.85,   -1.0,    1.0081, 3,    7138.57,  119.3,   0.99153, 0, 0, 0, 0
"DEV_261481", 12.47, 1,    7257.62,   -1.0,    1.0081, 3,    7138.19,  119.3,   0.99148, 0, 0, 0, 0
"PRI_261480", 12.47, 1,    7257.62,   -1.0,    1.0081, 3,    7138.19,  119.3,   0.99148, 0, 0, 0, 0
"DEV_261484", 12.47, 1,    7247.11,   -1.1,    1.0066, 2,    7367.08, -119.5,    1.0233, 0, 0, 0, 0
"PRI_261485", 12.47, 1,    7247.11,   -1.1,    1.0066, 2,    7367.08, -119.5,    1.0233, 0, 0, 0, 0
"DEV_261487", 12.47, 1,    7247.19,   -1.1,    1.0066, 2,    7366.97, -119.5,    1.0233, 3,    7128.97,  119.3,    0.9902
"DEV_261490", 12.47, 1,    7247.25,   -1.1,    1.0066, 2,    7366.91, -119.5,    1.0232, 3,    7128.96,  119.3,   0.99019
"PRI_261489", 12.47, 1,    7247.25,   -1.1,    1.0066, 2,    7366.92, -119.5,    1.0232, 3,    7128.96,  119.3,   0.99019
"DEV_261492", 12.47, 1,    7247.31,   -1.1,    1.0066, 2,    7366.86, -119.5,    1.0232, 3,    7128.96,  119.3,   0.99019
"NODE_11021907", 12.47, 1,    7287.48,   -0.9,    1.0122, 2,    7376.85, -119.6,    1.0246, 3,    7197.18,  119.4,   0.99967
"PRI_261493", 12.47, 1,    7287.48,   -0.9,    1.0122, 2,    7376.85, -119.6,    1.0246, 3,    7197.18,  119.4,   0.99967
"NODE_609912", 12.47, 1,    7317.13,   -0.9,    1.0163, 2,    7384.08, -119.7,    1.0256, 3,    7248.78,  119.5,    1.0068
...