dssFiles/Mikilua_VLN_Node.Txt

LINE-GROUND and LINE-LINE VOLTAGES BY BUS & NODE

Bus                    Node    VLN (kV)   Angle      pu     Base kV    Node-Node   VLL (kV)  Angle      pu

SOURCEBUS ............ 1       7.4155 /_    0.0      1.03    12.470        1-2     12.844 /_   30.0      1.03
   -                   2       7.4155 /_ -120.0      1.03    12.470        2-3     12.844 /_  -90.0      1.03
   -                   3       7.4155 /_  120.0      1.03    12.470        3-1     12.844 /_  150.0      1.03
XFMRM34 .............. 1       7.3691 /_    0.0    1.0235    12.470        1-2     12.724 /_   29.9    1.0203
   -                   2       7.3228 /_ -120.0    1.0171    12.470        2-3     12.683 /_  -90.0    1.0171
   -                   3       7.3228 /_  120.0    1.0171    12.470        3-1     12.724 /_  150.1    1.0203
DEV_258083 ........... 1       7.3143 /_   -0.9    1.0159    12.470
DEV_258183 ........... 1       7.3143 /_   -0.9    1.0159    12.470
DEV_258175 ........... 1       7.3136 /_   -0.9    1.0158    12.470
DEV_258084 ........... 1       7.3136 /_   -0.9    1.0158    12.470
DEV_258082 ........... 1       7.3139 /_   -0.9    1.0159    12.470
DEV_258185 ........... 1       7.3139 /_   -0.9    1.0159    12.470
DEV_258074 ........... 1       7.3105 /_   -0.9    1.0154    12.470
DEV_258195 ........... 1       7.3105 /_   -0.9    1.0154    12.470
DEV_258078 ........... 1       7.3104 /_   -0.9    1.0154    12.470
DEV_258191 ........... 1       7.3104 /_   -0.9    1.0154    12.470
DEV_258081 ........... 1       7.3104 /_   -0.9    1.0154    12.470
DEV_258181 ........... 1       7.3104 /_   -0.9    1.0154    12.470
DEV_258173 ........... 1        7.313 /_   -0.9    1.0158    12.470
DEV_258152 ........... 1        7.313 /_   -0.9    1.0158    12.470
DEV_258210 ........... 1       7.3109 /_   -0.9    1.0155    12.470
DEV_258211 ........... 1       7.3109 /_   -0.9    1.0155    12.470
DEV_258793 ........... 1       7.3142 /_   -0.9    1.0159    12.470
DEV_258894 ........... 1       7.3142 /_   -0.9    1.0159    12.470
DEV_258813 ........... 1       7.3164 /_   -0.9    1.0162    12.470
DEV_258887 ........... 1       7.3164 /_   -0.9    1.0162    12.470
DEV_258881 ........... 1        7.314 /_   -0.9    1.0159    12.470
DEV_258818 ........... 1        7.314 /_   -0.9    1.0159    12.470
DEV_258825 ........... 1       7.3153 /_   -0.9    1.0161    12.470
DEV_258823 ........... 1       7.3153 /_   -0.9    1.0161    12.470
DEV_258839 ........... 1        7.314 /_   -0.9    1.0159    12.470
DEV_258897 ........... 1        7.314 /_   -0.9    1.0159    12.470
DEV_258807 ........... 1       7.3159 /_   -0.9    1.0162    12.470
DEV_258885 ........... 1       7.3159 /_   -0.9    1.0162    12.470
DEV_259020 ........... 1       7.3235 /_   -0.8    1.0172    12.470        1-2     12.635 /_   29.6    1.0132
   -                   2       7.3293 /_ -120.0     1.018    12.470        2-3      12.65 /_  -90.4    1.0144
   -                   3       7.2408 /_  119.5    1.0057    12.470        3-1     12.636 /_  149.6    1.0133
DEV_259186 ........... 1       7.3235 /_   -0.8    1.0172    12.470        1-2     12.635 /_   29.6    1.0132
   -                   2       7.3293 /_ -120.0     1.018    12.470        2-3      12.65 /_  -90.4    1.0144
   -                   3       7.2408 /_  119.5    1.0057    12.470        3-1     12.636 /_  149.6    1.0133
NODE_613672 .......... 1        7.316 /_   -0.9    1.0162    12.470        1-2     12.626 /_   29.6    1.0125
   -                   2       7.3319 /_ -119.9    1.0184    12.470        2-3     12.646 /_  -90.4    1.0141
   -                   3       7.2333 /_  119.5    1.0047    12.470        3-1     12.626 /_  149.5    1.0125
DEV_258057 ........... 1        7.316 /_   -0.9    1.0162    12.470        1-2     12.626 /_   29.6    1.0125
   -                   2       7.3319 /_ -119.9    1.0184    12.470        2-3     12.646 /_  -90.4    1.0141
   -                   3       7.2333 /_  119.5    1.0047    12.470        3-1     12.626 /_  149.5    1.0125
DEV_259046 ........... 1       7.3121 /_   -0.9    1.0156    12.470
DEV_259145 ........... 1       7.3121 /_   -0.9    1.0156    12.470
DEV_259149 ........... 1       7.3116 /_   -0.9    1.0156    12.470
DEV_259034 ........... 1       7.3116 /_   -0.9    1.0156    12.470
DEV_259151 ........... 1       7.3113 /_   -0.9    1.0155    12.470
DEV_259038 ........... 1       7.3113 /_   -0.9    1.0155    12.470
DEV_259042 ........... 1       7.3107 /_   -0.9    1.0154    12.470
DEV_259153 ........... 1       7.3107 /_   -0.9    1.0154    12.470
DEV_259143 ........... 1       7.3105 /_   -0.9    1.0154    12.470
DEV_259045 ........... 1       7.3105 /_   -0.9    1.0154    12.470
DEV_259162 ........... 1        7.314 /_   -0.9    1.0159    12.470
DEV_259161 ........... 1        7.314 /_   -0.9    1.0159    12.470
DEV_259167 ........... 1       7.3146 /_   -0.9     1.016    12.470
DEV_259168 ........... 1       7.3146 /_   -0.9     1.016    12.470
DEV_259173 ........... 1       7.3149 /_   -0.9     1.016    12.470
DEV_259172 ........... 1       7.3149 /_   -0.9     1.016    12.470
DEV_259177 ........... 1       7.3152 /_   -0.9    1.0161    12.470
DEV_259178 ........... 1       7.3152 /_   -0.9    1.0161    12.470
DEV_259050 ........... 1       7.3154 /_   -0.9    1.0161    12.470        1-2     12.626 /_   29.6    1.0125
   -                   2       7.3319 /_ -119.9    1.0184    12.470        2-3     12.646 /_  -90.4    1.0141
   -                   3       7.2328 /_  119.5    1.0046    12.470        3-1     12.625 /_  149.5    1.0124
NODE_30049816 ........ 1       7.3154 /_   -0.9    1.0161    12.470        1-2     12.626 /_   29.6    1.0125
   -                   2       7.3319 /_ -119.9    1.0184    12.470        2-3     12.646 /_  -90.4    1.0141
   -                   3       7.2328 /_  119.5    1.0046    12.470        3-1     12.625 /_  149.5    1.0124
DEV_262522 ........... 3       7.1915 /_  118.7   0.99888    12.470
DEV_262470 ........... 3       7.1915 /_  118.7   0.99888    12.470
DEV_263529 ........... 1       7.2828 /_   -1.1    1.0116    12.470        1-2      12.55 /_   28.9    1.0064
   -                   2       7.2325 /_ -120.8    1.0046    12.470        2-3     12.521 /_  -91.1    1.0041
   -                   3       7.1921 /_  118.7   0.99896    12.470        3-1     12.527 /_  149.0    1.0046
DEV_263528 ........... 1       7.2828 /_   -1.1    1.0116    12.470        1-2      12.55 /_   28.9    1.0064
   -                   2       7.2325 /_ -120.8    1.0046    12.470        2-3     12.521 /_  -91.1    1.0041
   -                   3       7.1921 /_  118.7   0.99896    12.470        3-1     12.527 /_  149.0    1.0046
DEV_263917 ........... 3       7.1917 /_  118.7   0.99891    12.470
DEV_263554 ........... 3       7.1917 /_  118.7   0.99891    12.470
DEV_263909 ........... 3       7.1915 /_  118.7   0.99888    12.470
DEV_263557 ........... 3       7.1915 /_  118.7   0.99888    12.470
DEV_263626 ........... 1       7.2816 /_   -1.1    1.0114    12.470
DEV_263913 ........... 1       7.2816 /_   -1.1    1.0114    12.470
DEV_263630 ........... 1       7.2816 /_   -1.1    1.0114    12.470
DEV_263905 ........... 1       7.2816 /_   -1.1    1.0114    12.470
DEV_263668 ........... 3       7.1903 /_  118.7   0.99872    12.470
DEV_263881 ........... 3       7.1903 /_  118.7   0.99872    12.470
DEV_263672 ........... 3       7.1901 /_  118.7   0.99868    12.470
DEV_263883 ........... 3       7.1901 /_  118.7   0.99868    12.470
DEV_263678 ........... 3       7.1897 /_  118.7   0.99863    12.470
DEV_263885 ........... 3       7.1897 /_  118.7   0.99863    12.470
DEV_263685 ........... 3       7.1891 /_  118.7   0.99854    12.470
DEV_263879 ........... 3       7.1891 /_  118.7   0.99854    12.470
DEV_263553 ........... 3       7.1915 /_  118.7   0.99888    12.470
DEV_263915 ........... 3       7.1915 /_  118.7   0.99888    12.470
DEV_263555 ........... 3       7.1914 /_  118.7   0.99887    12.470
DEV_263919 ........... 3       7.1914 /_  118.7   0.99887    12.470
DEV_263920 ........... 3       7.1914 /_  118.7   0.99887    12.470
DEV_263556 ........... 3       7.1914 /_  118.7   0.99887    12.470
DEV_263634 ........... 1       7.2816 /_   -1.1    1.0114    12.470
DEV_263717 ........... 1       7.2816 /_   -1.1    1.0114    12.470
DEV_263638 ........... 1       7.2817 /_   -1.1    1.0114    12.470
DEV_263903 ........... 1       7.2817 /_   -1.1    1.0114    12.470
DEV_263640 ........... 1       7.2819 /_   -1.1    1.0114    12.470
DEV_263907 ........... 1       7.2819 /_   -1.1    1.0114    12.470
DEV_263655 ........... 2       7.2326 /_ -120.8    1.0046    12.470
DEV_263720 ........... 2       7.2326 /_ -120.8    1.0046    12.470
DEV_263892 ........... 2       7.2327 /_ -120.8    1.0046    12.470
DEV_263652 ........... 2       7.2327 /_ -120.8    1.0046    12.470
DEV_263657 ........... 2       7.2327 /_ -120.8    1.0046    12.470
DEV_263901 ........... 2       7.2327 /_ -120.8    1.0046    12.470
DEV_263897 ........... 1       7.2821 /_   -1.1    1.0115    12.470
DEV_263644 ........... 1       7.2821 /_   -1.1    1.0115    12.470
DEV_263663 ........... 2       7.2331 /_ -120.8    1.0047    12.470
DEV_263899 ........... 2       7.2331 /_ -120.8    1.0047    12.470
DEV_263689 ........... 3        7.189 /_  118.7   0.99854    12.470
DEV_263690 ........... 3        7.189 /_  118.7   0.99854    12.470
DEV_263694 ........... 3       7.1891 /_  118.7   0.99854    12.470
DEV_263871 ........... 3       7.1891 /_  118.7   0.99854    12.470
DEV_263877 ........... 3       7.1896 /_  118.7   0.99861    12.470
DEV_263680 ........... 3       7.1896 /_  118.7   0.99861    12.470
DEV_263696 ........... 3       7.1892 /_  118.7   0.99856    12.470
DEV_263873 ........... 3       7.1892 /_  118.7   0.99856    12.470
DEV_263698 ........... 3       7.1894 /_  118.7   0.99858    12.470
DEV_263875 ........... 3       7.1894 /_  118.7   0.99858    12.470
DEV_263701 ........... 3       7.1899 /_  118.7   0.99865    12.470
DEV_263865 ........... 3       7.1899 /_  118.7   0.99865    12.470
DEV_263707 ........... 3       7.1904 /_  118.7   0.99872    12.470
DEV_263867 ........... 3       7.1904 /_  118.7   0.99872    12.470
DEV_263716 ........... 3       7.1914 /_  118.8   0.99887    12.470
DEV_263863 ........... 3       7.1914 /_  118.8   0.99887    12.470
DEV_263710 ........... 3       7.1909 /_  118.8   0.99879    12.470
DEV_263869 ........... 3       7.1908 /_  118.8   0.99879    12.470
DEV_263911 ........... 1        7.282 /_   -1.1    1.0115    12.470
DEV_263621 ........... 1        7.282 /_   -1.1    1.0115    12.470
DEV_263895 ........... 2       7.2329 /_ -120.8    1.0046    12.470
DEV_263622 ........... 2       7.2329 /_ -120.8    1.0046    12.470
NODE_5011599 ......... 1       7.2824 /_   -1.1    1.0115    12.470        1-2      12.55 /_   28.9    1.0064
   -                   2       7.2332 /_ -120.8    1.0047    12.470        2-3     12.522 /_  -91.1    1.0041
   -                   3       7.1921 /_  118.8   0.99896    12.470        3-1     12.527 /_  149.0    1.0046
DEV_263842 ........... 1       7.2824 /_   -1.1    1.0115    12.470        1-2      12.55 /_   28.9    1.0064
   -                   2       7.2332 /_ -120.8    1.0047    12.470        2-3     12.522 /_  -91.1    1.0041
   -                   3       7.1921 /_  118.8   0.99896    12.470        3-1     12.527 /_  149.0    1.0046
NODE_5011570 ......... 1       7.2824 /_   -1.1    1.0115    12.470        1-2      12.55 /_   28.9    1.0064
   -                   2       7.2332 /_ -120.8    1.0047    12.470        2-3     12.522 /_  -91.1    1.0041
   -                   3        7.192 /_  118.8   0.99895    12.470        3-1     12.527 /_  149.0    1.0046
DEV_263840 ........... 1       7.2824 /_   -1.1    1.0115    12.470        1-2      12.55 /_   28.9    1.0064
   -                   2       7.2332 /_ -120.8    1.0047    12.470        2-3     12.522 /_  -91.1    1.0041
   -                   3        7.192 /_  118.8   0.99895    12.470        3-1     12.527 /_  149.0    1.0046
DEV_263922 ........... 1       7.2824 /_   -1.1    1.0115    12.470        1-2      12.55 /_   28.9    1.0064
   -                   2       7.2332 /_ -120.8    1.0047    12.470        2-3     12.522 /_  -91.1    1.0041
   -                   3       7.1921 /_  118.8   0.99896    12.470        3-1     12.527 /_  149.0    1.0046
DEV_263923 ........... 1       7.2824 /_   -1.1    1.0115    12.470        1-2      12.55 /_   28.9    1.0064
   -                   2       7.2332 /_ -120.8    1.0047    12.470        2-3     12.522 /_  -91.1    1.0041
   -                   3       7.1921 /_  118.8   0.99896    12.470        3-1     12.527 /_  149.0    1.0046
DEV_263889 ........... 2       7.2326 /_ -120.8    1.0046    12.470
DEV_263887 ........... 2       7.2326 /_ -120.8    1.0046    12.470
DEV_264039 ........... 2       7.2368 /_ -120.8    1.0052    12.470
DEV_264038 ........... 2       7.2368 /_ -120.8    1.0052    12.470
DEV_264112 ........... 3        7.195 /_  118.8   0.99936    12.470
DEV_264113 ........... 3        7.195 /_  118.8   0.99936    12.470
DEV_264110 ........... 1       7.2745 /_   -1.1    1.0104    12.470
DEV_264111 ........... 1       7.2745 /_   -1.1    1.0104    12.470
DEV_264133 ........... 1       7.2745 /_   -1.1    1.0104    12.470
DEV_264131 ........... 1       7.2745 /_   -1.1    1.0104    12.470
DEV_264985 ........... 1       7.2746 /_   -1.1    1.0104    12.470
DEV_264984 ........... 1       7.2746 /_   -1.1    1.0104    12.470
DEV_264981 ........... 1        7.275 /_   -1.1    1.0105    12.470
DEV_264980 ........... 1        7.275 /_   -1.1    1.0105    12.470
DEV_265173 ........... 1       7.2825 /_   -1.1    1.0115    12.470        1-2     12.556 /_   29.0    1.0069
   -                   2       7.2404 /_ -120.8    1.0057    12.470        2-3     12.531 /_  -91.0    1.0049
   -                   3       7.2018 /_  118.9    1.0003    12.470        3-1     12.541 /_  149.1    1.0057
DEV_265174 ........... 1       7.2825 /_   -1.1    1.0115    12.470        1-2     12.556 /_   29.0    1.0069
   -                   2       7.2404 /_ -120.8    1.0057    12.470        2-3     12.531 /_  -91.0    1.0049
   -                   3       7.2018 /_  118.9    1.0003    12.470        3-1     12.541 /_  149.1    1.0057
DEV_51045897 ......... 1       7.3147 /_   -0.9     1.016    12.470
DEV_51045898 ......... 1       7.3147 /_   -0.9     1.016    12.470
DEV_51045965 ......... 3        7.232 /_  119.5    1.0045    12.470
DEV_51045966 ......... 3        7.232 /_  119.5    1.0045    12.470
DEV_51045976 ......... 3       7.2321 /_  119.5    1.0045    12.470
DEV_51045977 ......... 3       7.2321 /_  119.5    1.0045    12.470
DEV_51045983 ......... 3       7.2324 /_  119.5    1.0046    12.470
DEV_51045984 ......... 3       7.2324 /_  119.5    1.0046    12.470
DEV_51045991 ......... 2       7.3318 /_ -119.9    1.0184    12.470
DEV_51045992 ......... 2       7.3318 /_ -119.9    1.0184    12.470
DEV_51045999 ......... 2       7.3316 /_ -119.9    1.0183    12.470
DEV_51046000 ......... 2       7.3316 /_ -119.9    1.0183    12.470
DEV_51046006 ......... 2       7.3316 /_ -119.9    1.0183    12.470
DEV_51046007 ......... 2       7.3316 /_ -119.9    1.0183    12.470
DEV_51046013 ......... 2       7.3316 /_ -119.9    1.0183    12.470
DEV_51046014 ......... 2       7.3316 /_ -119.9    1.0183    12.470
DEV_51046019 ......... 2       7.3316 /_ -119.9    1.0183    12.470
DEV_51046020 ......... 2       7.3316 /_ -119.9    1.0183    12.470
DEV_51046031 ......... 2       7.3316 /_ -119.9    1.0183    12.470
DEV_51046032 ......... 2       7.3316 /_ -119.9    1.0183    12.470
DEV_51046038 ......... 2       7.3317 /_ -119.9    1.0184    12.470
DEV_51046039 ......... 2       7.3317 /_ -119.9    1.0184    12.470
DEV_51046045 ......... 3       7.2321 /_  119.5    1.0045    12.470
DEV_51046046 ......... 3       7.2321 /_  119.5    1.0045    12.470
DEV_51054582 ......... 1       7.3119 /_   -0.9    1.0156    12.470
DEV_51054583 ......... 1       7.3119 /_   -0.9    1.0156    12.470
DEV_51067433 ......... 1       7.2902 /_   -1.0    1.0126    12.470
DEV_51067434 ......... 1       7.2902 /_   -1.0    1.0126    12.470
DEV_51118372 ......... 1       7.3312 /_   -0.4    1.0183    12.470        1-2     12.655 /_   29.5    1.0149
   -                   2       7.2878 /_ -120.3    1.0123    12.470        2-3     12.619 /_  -90.4     1.012
   -                   3        7.278 /_  119.6    1.0109    12.470        3-1     12.652 /_  149.7    1.0146
DEV_51118373 ......... 1       7.3312 /_   -0.4    1.0183    12.470        1-2     12.655 /_   29.5    1.0149
   -                   2       7.2878 /_ -120.3    1.0123    12.470        2-3     12.619 /_  -90.4     1.012
   -                   3        7.278 /_  119.6    1.0109    12.470        3-1     12.652 /_  149.7    1.0146
DEV_51118540 ......... 1       7.2822 /_   -1.1    1.0115    12.470        1-2     12.553 /_   29.0    1.0067
   -                   2       7.2377 /_ -120.8    1.0053    12.470        2-3     12.527 /_  -91.1    1.0046
   -                   3       7.1979 /_  118.8   0.99977    12.470        3-1     12.535 /_  149.1    1.0052
DEV_51118541 ......... 1       7.2822 /_   -1.1    1.0115    12.470        1-2     12.553 /_   29.0    1.0067
   -                   2       7.2377 /_ -120.8    1.0053    12.470        2-3     12.527 /_  -91.1    1.0046
   -                   3       7.1979 /_  118.8   0.99977    12.470        3-1     12.535 /_  149.1    1.0052
DEV_51159905 ......... 1       7.3209 /_   -0.5    1.0169    12.470        1-2     12.637 /_   29.4    1.0134
   -                   2       7.2775 /_ -120.4    1.0108    12.470        2-3     12.602 /_  -90.5    1.0106
   -                   3        7.268 /_  119.5    1.0095    12.470        3-1     12.635 /_  149.6    1.0132
DEV_51159906 ......... 1       7.3209 /_   -0.5    1.0169    12.470        1-2     12.637 /_   29.4    1.0134
   -                   2       7.2775 /_ -120.4    1.0108    12.470        2-3     12.602 /_  -90.5    1.0106
   -                   3        7.268 /_  119.5    1.0095    12.470        3-1     12.635 /_  149.6    1.0132
DEV_51159924 ......... 1       7.3445 /_   -0.3    1.0201    12.470        1-2      12.68 /_   29.7    1.0168
   -                   2       7.3004 /_ -120.2     1.014    12.470        2-3     12.642 /_  -90.3    1.0138
   -                   3       7.2937 /_  119.7    1.0131    12.470        3-1     12.677 /_  149.9    1.0166
DEV_51159925 ......... 1       7.3445 /_   -0.3    1.0201    12.470        1-2      12.68 /_   29.7    1.0168
   -                   2       7.3004 /_ -120.2     1.014    12.470        2-3     12.642 /_  -90.3    1.0138
   -                   3       7.2937 /_  119.7    1.0131    12.470        3-1     12.677 /_  149.9    1.0166
DEV_51189819 ......... 1       7.2697 /_   -0.9    1.0097    12.470        1-2     12.559 /_   29.7    1.0071
   -                   2       7.3077 /_ -119.9     1.015    12.470        2-3     12.571 /_  -90.6    1.0081
   -                   3        7.161 /_  119.4   0.99465    12.470        3-1     12.521 /_  149.5    1.0041
DEV_51189820 ......... 1       7.2697 /_   -0.9    1.0097    12.470        1-2     12.559 /_   29.7    1.0071
   -                   2       7.3077 /_ -119.9     1.015    12.470        2-3     12.571 /_  -90.6    1.0081
   -                   3        7.161 /_  119.4   0.99465    12.470        3-1     12.521 /_  149.5    1.0041
DEV_258055 ........... 1        7.316 /_   -0.9    1.0162    12.470
DEV_258060 ........... 1        7.316 /_   -0.9    1.0162    12.470        1-2     12.626 /_   29.6    1.0125
   -                   2       7.3319 /_ -119.9    1.0184    12.470        2-3     12.646 /_  -90.4    1.0141
   -                   3       7.2333 /_  119.5    1.0047    12.470        3-1     12.626 /_  149.5    1.0125
DEV_259015 ........... 1       7.3235 /_   -0.8    1.0172    12.470        1-2     12.635 /_   29.6    1.0132
   -                   2       7.3293 /_ -120.0     1.018    12.470        2-3      12.65 /_  -90.4    1.0144
   -                   3       7.2408 /_  119.5    1.0057    12.470        3-1     12.636 /_  149.6    1.0133
DEV_259016 ........... 1       7.3235 /_   -0.8    1.0172    12.470        1-2     12.635 /_   29.6    1.0132
   -                   2       7.3293 /_ -120.0     1.018    12.470        2-3      12.65 /_  -90.4    1.0144
   -                   3       7.2408 /_  119.5    1.0057    12.470        3-1     12.636 /_  149.6    1.0133
DEV_259023 ........... 2       7.3319 /_ -119.9    1.0184    12.470
DEV_259025 ........... 3       7.2333 /_  119.5    1.0047    12.470
DEV_259026 ........... 1        7.316 /_   -0.9    1.0162    12.470
DEV_259027 ........... 2       7.3319 /_ -119.9    1.0184    12.470
DEV_259028 ........... 3       7.2333 /_  119.5    1.0047    12.470
DEV_259048 ........... 1       7.3154 /_   -0.9    1.0161    12.470
DEV_259049 ........... 2       7.3319 /_ -119.9    1.0184    12.470
DEV_259159 ........... 1       7.3154 /_   -0.9    1.0161    12.470        1-2     12.626 /_   29.6    1.0125
   -                   2       7.3319 /_ -119.9    1.0184    12.470        2-3     12.646 /_  -90.4    1.0141
   -                   3       7.2328 /_  119.5    1.0046    12.470        3-1     12.625 /_  149.5    1.0124
DEV_259051 ........... 2       7.3319 /_ -119.9    1.0184    12.470
DEV_259052 ........... 1       7.3154 /_   -0.9    1.0161    12.470
DEV_259157 ........... 3       7.2328 /_  119.5    1.0046    12.470
DEV_259158 ........... 3       7.2328 /_  119.5    1.0046    12.470
DEV_263530 ........... 1       7.2828 /_   -1.1    1.0116    12.470        1-2      12.55 /_   28.9    1.0064
   -                   2       7.2325 /_ -120.8    1.0046    12.470        2-3     12.521 /_  -91.1    1.0041
   -                   3       7.1921 /_  118.7   0.99896    12.470        3-1     12.527 /_  149.0    1.0046
DEV_263531 ........... 1       7.2828 /_   -1.1    1.0116    12.470        1-2      12.55 /_   28.9    1.0064
   -                   2       7.2325 /_ -120.8    1.0046    12.470        2-3     12.521 /_  -91.1    1.0041
   -                   3       7.1921 /_  118.7   0.99896    12.470        3-1     12.527 /_  149.0    1.0046
DEV_263784 ........... 3        7.192 /_  118.8   0.99895    12.470
DEV_263785 ........... 3        7.192 /_  118.8   0.99895    12.470
DEV_263811 ........... 1       7.2824 /_   -1.1    1.0115    12.470
DEV_263812 ........... 2       7.2332 /_ -120.8    1.0047    12.470
DEV_263813 ........... 2       7.2332 /_ -120.8    1.0047    12.470
DEV_263814 ........... 1       7.2824 /_   -1.1    1.0115    12.470
DEV_263815 ........... 3       7.1921 /_  118.8   0.99896    12.470
DEV_263816 ........... 1       7.2824 /_   -1.1    1.0115    12.470
DEV_263818 ........... 2       7.2332 /_ -120.8    1.0047    12.470
DEV_263819 ........... 3       7.1921 /_  118.8   0.99896    12.470
DEV_263820 ........... 2       7.2332 /_ -120.8    1.0047    12.470
DEV_263821 ........... 1       7.2824 /_   -1.1    1.0115    12.470
DEV_263834 ........... 1       7.2824 /_   -1.1    1.0115    12.470        1-2      12.55 /_   28.9    1.0064
   -                   2       7.2332 /_ -120.8    1.0047    12.470        2-3     12.522 /_  -91.1    1.0041
   -                   3       7.1921 /_  118.8   0.99896    12.470        3-1     12.527 /_  149.0    1.0046
DEV_263841 ........... 1       7.2824 /_   -1.1    1.0115    12.470        1-2      12.55 /_   28.9    1.0064
   -                   2       7.2332 /_ -120.8    1.0047    12.470        2-3     12.522 /_  -91.1    1.0041
   -                   3        7.192 /_  118.8   0.99895    12.470        3-1     12.527 /_  149.0    1.0046
DEV_263843 ........... 1       7.2824 /_   -1.1    1.0115    12.470        1-2      12.55 /_   28.9    1.0064
   -                   2       7.2332 /_ -120.8    1.0047    12.470        2-3     12.522 /_  -91.1    1.0041
   -                   3       7.1921 /_  118.8   0.99896    12.470        3-1     12.527 /_  149.0    1.0046
DEV_263851 ........... 1       7.2824 /_   -1.1    1.0115    12.470        1-2      12.55 /_   28.9    1.0064
   -                   2       7.2332 /_ -120.8    1.0047    12.470        2-3     12.522 /_  -91.1    1.0041
   -                   3       7.1921 /_  118.8   0.99896    12.470        3-1     12.527 /_  149.0    1.0046
DEV_264990 ........... 1       7.2921 /_   -0.9    1.0129    12.470        1-2     12.577 /_   29.1    1.0086
   -                   2       7.2505 /_ -120.7    1.0071    12.470        2-3     12.549 /_  -90.9    1.0064
   -                   3       7.2191 /_  119.0    1.0027    12.470        3-1     12.566 /_  149.2    1.0077
DEV_264991 ........... 1       7.2921 /_   -0.9    1.0129    12.470        1-2     12.577 /_   29.1    1.0086
   -                   2       7.2505 /_ -120.7    1.0071    12.470        2-3     12.549 /_  -90.9    1.0064
   -                   3       7.2191 /_  119.0    1.0027    12.470        3-1     12.566 /_  149.2    1.0077
DEV_265175 ........... 1       7.2825 /_   -1.1    1.0115    12.470        1-2     12.556 /_   29.0    1.0069
   -                   2       7.2404 /_ -120.8    1.0057    12.470        2-3     12.531 /_  -91.0    1.0049
   -                   3       7.2018 /_  118.9    1.0003    12.470        3-1     12.541 /_  149.1    1.0057
DEV_265176 ........... 1       7.2825 /_   -1.1    1.0115    12.470        1-2     12.556 /_   29.0    1.0069
   -                   2       7.2404 /_ -120.8    1.0057    12.470        2-3     12.531 /_  -91.0    1.0049
   -                   3       7.2018 /_  118.9    1.0003    12.470        3-1     12.541 /_  149.1    1.0057
DEV_265584 ........... 1       7.3162 /_   -0.6    1.0162    12.470        1-2     12.627 /_   29.4    1.0126
   -                   2       7.2733 /_ -120.5    1.0102    12.470        2-3     12.593 /_  -90.6    1.0099
   -                   3       7.2592 /_  119.4    1.0083    12.470        3-1     12.623 /_  149.5    1.0123
NODE_628203 .......... 1       7.3162 /_   -0.6    1.0162    12.470        1-2     12.627 /_   29.4    1.0126
   -                   2       7.2733 /_ -120.5    1.0102    12.470        2-3     12.593 /_  -90.6    1.0099
   -                   3       7.2592 /_  119.4    1.0083    12.470        3-1     12.623 /_  149.5    1.0123
DEV_51058546 ......... 1       7.3306 /_   -0.7    1.0182    12.470        1-2     12.648 /_   29.7    1.0142
   -                   2        7.326 /_ -120.0    1.0176    12.470        2-3     12.652 /_  -90.4    1.0146
   -                   3       7.2522 /_  119.6    1.0073    12.470        3-1     12.647 /_  149.6    1.0142
DEV_51080616 ......... 1       7.3306 /_   -0.7    1.0182    12.470        1-2     12.648 /_   29.7    1.0142
   -                   2        7.326 /_ -120.0    1.0176    12.470        2-3     12.652 /_  -90.4    1.0146
   -                   3       7.2522 /_  119.6    1.0073    12.470        3-1     12.647 /_  149.6    1.0142
DEV_51118374 ......... 1       7.3312 /_   -0.4    1.0183    12.470        1-2     12.655 /_   29.5    1.0149
   -                   2       7.2878 /_ -120.3    1.0123    12.470        2-3     12.619 /_  -90.4     1.012
   -                   3        7.278 /_  119.6    1.0109    12.470        3-1     12.652 /_  149.7    1.0146
DEV_51118375 ......... 1       7.3312 /_   -0.4    1.0183    12.470        1-2     12.655 /_   29.5    1.0149
   -                   2       7.2878 /_ -120.3    1.0123    12.470        2-3     12.619 /_  -90.4     1.012
   -                   3        7.278 /_  119.6    1.0109    12.470        3-1     12.652 /_  149.7    1.0146
DEV_51118542 ......... 1       7.2822 /_   -1.1    1.0115    12.470        1-2     12.553 /_   29.0    1.0067
   -                   2       7.2377 /_ -120.8    1.0053    12.470        2-3     12.527 /_  -91.1    1.0046
   -                   3       7.1979 /_  118.8   0.99977    12.470        3-1     12.535 /_  149.1    1.0052
DEV_51118543 ......... 1       7.2822 /_   -1.1    1.0115    12.470        1-2     12.553 /_   29.0    1.0067
   -                   2       7.2377 /_ -120.8    1.0053    12.470        2-3     12.527 /_  -91.1    1.0046
   -                   3       7.1979 /_  118.8   0.99977    12.470        3-1     12.535 /_  149.1    1.0052
DEV_51159907 ......... 1       7.3209 /_   -0.5    1.0169    12.470        1-2     12.637 /_   29.4    1.0134
   -                   2       7.2775 /_ -120.4    1.0108    12.470        2-3     12.602 /_  -90.5    1.0106
   -                   3        7.268 /_  119.5    1.0095    12.470        3-1     12.635 /_  149.6    1.0132
DEV_51159908 ......... 1       7.3209 /_   -0.5    1.0169    12.470        1-2     12.637 /_   29.4    1.0134
   -                   2       7.2775 /_ -120.4    1.0108    12.470        2-3     12.602 /_  -90.5    1.0106
   -                   3        7.268 /_  119.5    1.0095    12.470        3-1     12.635 /_  149.6    1.0132
DEV_51159926 ......... 1       7.3445 /_   -0.3    1.0201    12.470        1-2      12.68 /_   29.7    1.0168
   -                   2       7.3004 /_ -120.2     1.014    12.470        2-3     12.642 /_  -90.3    1.0138
   -                   3       7.2937 /_  119.7    1.0131    12.470        3-1     12.677 /_  149.9    1.0166
DEV_51159927 ......... 1       7.3445 /_   -0.3    1.0201    12.470        1-2      12.68 /_   29.7    1.0168
   -                   2       7.3004 /_ -120.2     1.014    12.470        2-3     12.642 /_  -90.3    1.0138
   -                   3       7.2937 /_  119.7    1.0131    12.470        3-1     12.677 /_  149.9    1.0166
DEV_51187193 ......... 1       7.3162 /_   -0.6    1.0162    12.470        1-2     12.627 /_   29.4    1.0126
...